Compound 7
Actelion Java MolfileCreator 2.0

  0  0  0  0  0  0              0 V3000
M  V30 BEGIN CTAB
M  V30 COUNTS 22 23 0 0 0
M  V30 BEGIN ATOM
M  V30 1 F 0.0 0.0 0.0 0
M  V30 2 C 1.3 -0.7445 0.0 0
M  V30 3 C 1.3 -2.2454 0.0 0
M  V30 4 C 2.6 0.0 0.0 0
M  V30 5 N 0.0 -3.0018 0.0 0
M  V30 6 C 2.6 -2.99 0.0 0
M  V30 7 C 3.9 -0.7563 0.0 0
M  V30 8 C -1.3 -2.2572 0.0 0
M  V30 9 F 2.6 -4.4909 0.0 0
M  V30 10 C 3.9 -2.2454 0.0 0
M  V30 11 C -2.6 -3.0136 0.0 0
M  V30 12 O -2.6 -4.5145 0.0 0
M  V30 13 N -3.9 -2.2691 0.0 0
M  V30 14 C -5.2 -3.0254 0.0 0
M  V30 15 C -6.5 -2.2809 0.0 0
M  V30 16 C -5.2 -4.5263 0.0 0
M  V30 17 C -6.5 -0.78 0.0 0
M  V30 18 C -7.8 -3.0254 0.0 0
M  V30 19 C -6.5 -5.2827 0.0 0
M  V30 20 O -5.2 -0.0354 0.0 0
M  V30 21 O -7.8 -0.0354 0.0 0 CHG=-1
M  V30 22 C -7.8 -4.5263 0.0 0
M  V30 END ATOM
M  V30 BEGIN BOND
M  V30 1 1 1 2
M  V30 2 2 2 3
M  V30 3 1 2 4
M  V30 4 1 3 5
M  V30 5 1 3 6
M  V30 6 2 4 7
M  V30 7 1 5 8
M  V30 8 1 6 9
M  V30 9 2 6 10
M  V30 10 1 8 11
M  V30 11 2 11 12
M  V30 12 1 11 13
M  V30 13 1 13 14
M  V30 14 2 14 15
M  V30 15 1 14 16
M  V30 16 1 15 17
M  V30 17 1 15 18
M  V30 18 2 16 19
M  V30 19 2 17 20
M  V30 20 1 17 21
M  V30 21 2 18 22
M  V30 22 1 7 10
M  V30 23 1 19 22
M  V30 END BOND
M  V30 END CTAB
M  END
>  <Molecule Name>
Compound 7

>  <FORMATTED_ID>
H3D-002856

>  <SMILES>
O=C(CNc1c(F)cccc1F)Nc1ccccc1C(=O)[O-]

>  <MOLFORMULA>
C15H12F2N2O3

>  <Exact Mass>
1,8

>  <XLogP>
306,08

>  <TPSA_NOPS>
78,4

>  <IC50>
2.92 ± 0.07

>  <EC50>
3.9 ± 0.2

>  <CC50>
> 100

$$$$
Compound 12
Actelion Java MolfileCreator 2.0

  0  0  0  0  0  0              0 V3000
M  V30 BEGIN CTAB
M  V30 COUNTS 25 27 0 0 0
M  V30 BEGIN ATOM
M  V30 1 F 0.0 0.0 0.0 0
M  V30 2 C -1.3009 -0.745 0.0 0
M  V30 3 C -2.6018 0.0 0.0 0
M  V30 4 C -1.3009 -2.247 0.0 0
M  V30 5 C -3.9027 -0.745 0.0 0
M  V30 6 C -2.6018 -2.9921 0.0 0
M  V30 7 C -3.9027 -2.247 0.0 0
M  V30 8 N -5.2036 -2.9921 0.0 0
M  V30 9 C -6.5045 -2.247 0.0 0
M  V30 10 C -5.2036 -4.494 0.0 0
M  V30 11 C -7.8055 -2.9921 0.0 0
M  V30 12 C -6.5045 -5.2391 0.0 0
M  V30 13 N -7.8055 -4.494 0.0 0
M  V30 14 C -9.1064 -5.2391 0.0 0
M  V30 15 O -9.1064 -6.7411 0.0 0
M  V30 16 N -10.4073 -4.494 0.0 0
M  V30 17 C -11.7082 -5.2391 0.0 0
M  V30 18 C -13.0091 -4.494 0.0 0
M  V30 19 C -11.7082 -6.7411 0.0 0
M  V30 20 C -13.0091 -2.9921 0.0 0
M  V30 21 C -14.31 -5.2391 0.0 0
M  V30 22 C -13.0091 -7.4861 0.0 0
M  V30 23 O -11.7082 -2.247 0.0 0
M  V30 24 O -14.31 -2.247 0.0 0 CHG=-1
M  V30 25 C -14.31 -6.7411 0.0 0
M  V30 END ATOM
M  V30 BEGIN BOND
M  V30 1 1 1 2
M  V30 2 2 2 3
M  V30 3 1 2 4
M  V30 4 1 3 5
M  V30 5 2 4 6
M  V30 6 2 5 7
M  V30 7 1 7 8
M  V30 8 1 8 9
M  V30 9 1 8 10
M  V30 10 1 9 11
M  V30 11 1 10 12
M  V30 12 1 11 13
M  V30 13 1 13 14
M  V30 14 2 14 15
M  V30 15 1 14 16
M  V30 16 1 16 17
M  V30 17 2 17 18
M  V30 18 1 17 19
M  V30 19 1 18 20
M  V30 20 1 18 21
M  V30 21 2 19 22
M  V30 22 2 20 23
M  V30 23 1 20 24
M  V30 24 2 21 25
M  V30 25 1 6 7
M  V30 26 1 12 13
M  V30 27 1 22 25
M  V30 END BOND
M  V30 END CTAB
M  END
>  <Molecule Name>
Compound 12

>  <FORMATTED_ID>
H3D-003308

>  <SMILES>
O=C([O-])c1ccccc1NC(=O)N1CCN(c2ccc(F)cc2)CC1

>  <MOLFORMULA>
C18H18FN3O3

>  <Exact Mass>
1,88

>  <XLogP>
343,13

>  <TPSA_NOPS>
72,9

>  <IC50>
340 ± 20

>  <EC50>


>  <CC50>


$$$$
Compound 18
Actelion Java MolfileCreator 2.0

  0  0  0  0  0  0              0 V3000
M  V30 BEGIN CTAB
M  V30 COUNTS 33 36 0 0 0
M  V30 BEGIN ATOM
M  V30 1 S 0.0 0.0 0.0 0
M  V30 2 O 1.4294 -0.4607 0.0 0
M  V30 3 O -1.4294 0.4607 0.0 0
M  V30 4 C -0.4607 -1.4294 0.0 0
M  V30 5 C 0.4607 1.4294 0.0 0
M  V30 6 C -1.9256 -1.7366 0.0 0
M  V30 7 C 0.5434 -2.5399 0.0 0
M  V30 8 C -2.3864 -3.1661 0.0 0
M  V30 9 C 0.0826 -3.9694 0.0 0
M  V30 10 C -1.3822 -4.2766 0.0 0
M  V30 11 C -1.8429 -5.7061 0.0 0
M  V30 12 N -3.2724 -6.1668 0.0 0
M  V30 13 C -0.9569 -6.9229 0.0 0
M  V30 14 N -4.5719 -5.4225 0.0 0
M  V30 15 C -3.2724 -7.6672 0.0 0
M  V30 16 N -1.8429 -8.1397 0.0 0
M  V30 17 C -5.8715 -6.1786 0.0 0
M  V30 18 C -4.5719 -8.4233 0.0 0
M  V30 19 C -7.171 -5.4344 0.0 0
M  V30 20 C -5.8715 -7.679 0.0 0
M  V30 21 C -7.171 -3.934 0.0 0
M  V30 22 C -8.4705 -6.1786 0.0 0
M  V30 23 F -5.8715 -3.1897 0.0 0
M  V30 24 C -8.4705 -3.1897 0.0 0
M  V30 25 C -9.7701 -5.4344 0.0 0
M  V30 26 C -9.7701 -3.9458 0.0 0
M  V30 27 C -11.0696 -6.1904 0.0 0
M  V30 28 O -11.0696 -7.6908 0.0 0
M  V30 29 N -12.3691 -5.4462 0.0 0
M  V30 30 C -13.6687 -6.2023 0.0 0
M  V30 31 C -12.9244 -7.5018 0.0 0
M  V30 32 C -14.9682 -6.9465 0.0 0
M  V30 33 C -14.4129 -4.9027 0.0 0
M  V30 END ATOM
M  V30 BEGIN BOND
M  V30 1 2 1 2
M  V30 2 2 1 3
M  V30 3 1 1 4
M  V30 4 1 1 5
M  V30 5 2 4 6
M  V30 6 1 4 7
M  V30 7 1 6 8
M  V30 8 2 7 9
M  V30 9 2 8 10
M  V30 10 1 10 11
M  V30 11 1 11 12
M  V30 12 2 11 13
M  V30 13 1 12 14
M  V30 14 1 12 15
M  V30 15 1 13 16
M  V30 16 2 14 17
M  V30 17 1 15 18
M  V30 18 1 17 19
M  V30 19 1 17 20
M  V30 20 2 19 21
M  V30 21 1 19 22
M  V30 22 1 21 23
M  V30 23 1 21 24
M  V30 24 2 22 25
M  V30 25 2 24 26
M  V30 26 1 25 27
M  V30 27 2 27 28
M  V30 28 1 27 29
M  V30 29 1 29 30
M  V30 30 1 30 31
M  V30 31 1 30 32
M  V30 32 1 30 33
M  V30 33 1 9 10
M  V30 34 2 15 16
M  V30 35 2 18 20
M  V30 36 1 25 26
M  V30 END BOND
M  V30 END CTAB
M  END
>  <Molecule Name>
Compound 18

>  <FORMATTED_ID>
H3D-000374

>  <SMILES>
CC(C)(C)NC(=O)c1ccc(F)c(-c2ccc3ncc(-c4ccc(S(C)(=O)=O)cc4)n3n2)c1

>  <MOLFORMULA>
C24H23FN4O3S

>  <Exact Mass>
4,43

>  <XLogP>
466,15

>  <TPSA_NOPS>
101,8

>  <IC50>


>  <EC50>


>  <CC50>


$$$$
Compound 19
Actelion Java MolfileCreator 2.0

  0  0  0  0  0  0              0 V3000
M  V30 BEGIN CTAB
M  V30 COUNTS 26 28 0 0 0
M  V30 BEGIN ATOM
M  V30 1 F 0.0 0.0 0.0 0
M  V30 2 C -1.2992 0.7441 0.0 0
M  V30 3 C -1.2992 2.2442 0.0 0
M  V30 4 C -2.5985 0.0 0.0 0
M  V30 5 C -2.5985 3.0001 0.0 0
M  V30 6 C -3.8978 0.7441 0.0 0
M  V30 7 C -3.8978 2.2442 0.0 0
M  V30 8 N -5.1971 3.0001 0.0 0
M  V30 9 C -5.1971 4.5002 0.0 0
M  V30 10 C -6.4964 2.2442 0.0 0
M  V30 11 C -6.4964 5.2444 0.0 0
M  V30 12 C -7.7957 2.9883 0.0 0
M  V30 13 N -7.7957 4.4884 0.0 0
M  V30 14 C -9.095 5.2326 0.0 0
M  V30 15 C -10.3943 4.4766 0.0 0
M  V30 16 O -10.3943 2.9765 0.0 0
M  V30 17 N -11.6936 5.2208 0.0 0
M  V30 18 C -12.9929 4.4648 0.0 0
M  V30 19 C -14.2922 5.2089 0.0 0
M  V30 20 C -12.9929 2.9647 0.0 0
M  V30 21 C -14.2922 6.709 0.0 0
M  V30 22 C -15.5915 4.4648 0.0 0
M  V30 23 C -14.2922 2.2088 0.0 0
M  V30 24 O -12.9929 7.4532 0.0 0
M  V30 25 O -15.5915 7.4532 0.0 0
M  V30 26 C -15.5915 2.9647 0.0 0
M  V30 END ATOM
M  V30 BEGIN BOND
M  V30 1 1 1 2
M  V30 2 2 2 3
M  V30 3 1 2 4
M  V30 4 1 3 5
M  V30 5 2 4 6
M  V30 6 2 5 7
M  V30 7 1 7 8
M  V30 8 1 8 9
M  V30 9 1 8 10
M  V30 10 1 9 11
M  V30 11 1 10 12
M  V30 12 1 11 13
M  V30 13 1 13 14
M  V30 14 1 14 15
M  V30 15 2 15 16
M  V30 16 1 15 17
M  V30 17 1 17 18
M  V30 18 2 18 19
M  V30 19 1 18 20
M  V30 20 1 19 21
M  V30 21 1 19 22
M  V30 22 2 20 23
M  V30 23 2 21 24
M  V30 24 1 21 25
M  V30 25 2 22 26
M  V30 26 1 6 7
M  V30 27 1 12 13
M  V30 28 1 23 26
M  V30 END BOND
M  V30 END CTAB
M  END
>  <Molecule Name>
Compound 19

>  <FORMATTED_ID>
H3D-003130

>  <SMILES>
O=C(C[NH+]1CCN(c2ccc(F)cc2)CC1)Nc1ccccc1C(=O)[O-]

>  <MOLFORMULA>
C19H20FN3O3

>  <Exact Mass>
1,49

>  <XLogP>
357,15

>  <TPSA_NOPS>
72,9

>  <IC50>


>  <EC50>


>  <CC50>


$$$$
Compound 20
Actelion Java MolfileCreator 2.0

  0  0  0  0  0  0              0 V3000
M  V30 BEGIN CTAB
M  V30 COUNTS 37 41 0 0 0
M  V30 BEGIN ATOM
M  V30 1 O 0.0 0.0 0.0 0
M  V30 2 C 1.111 1.0046 0.0 0
M  V30 3 O 2.5766 0.6973 0.0 0
M  V30 4 N 0.9573 2.4939 0.0 0
M  V30 5 C 3.3212 1.9974 0.0 0
M  V30 6 C 2.3284 3.1085 0.0 0
M  V30 7 C -0.3427 3.2385 0.0 0
M  V30 8 C -1.6429 2.4939 0.0 0
M  V30 9 C -2.943 3.2503 0.0 0
M  V30 10 C -1.6429 0.9928 0.0 0
M  V30 11 C -4.2431 2.5057 0.0 0
M  V30 12 C -2.943 0.2482 0.0 0
M  V30 13 C -4.2431 1.0046 0.0 0
M  V30 14 C -5.5433 0.26 0.0 0
M  V30 15 C -6.8434 1.0046 0.0 0
M  V30 16 C -5.5433 -1.241 0.0 0
M  V30 17 C -8.1435 0.26 0.0 0
M  V30 18 C -6.8434 2.5057 0.0 0
M  V30 19 C -6.8434 -1.9856 0.0 0
M  V30 20 C -4.2431 -1.9856 0.0 0
M  V30 21 C -8.1435 -1.241 0.0 0
M  V30 22 C -9.4437 1.0046 0.0 0
M  V30 23 N -9.4437 -1.9856 0.0 0
M  V30 24 N -9.4437 2.5057 0.0 0
M  V30 25 C -10.7438 0.26 0.0 0
M  V30 26 C -10.7438 -1.241 0.0 0
M  V30 27 N -8.2263 3.3921 0.0 0
M  V30 28 C -10.6611 3.3921 0.0 0
M  V30 29 C -12.044 -1.9856 0.0 0
M  V30 30 C -8.6872 4.8223 0.0 0
M  V30 31 C -10.2001 4.8223 0.0 0
M  V30 32 C -12.0912 2.9312 0.0 0
M  V30 33 O -12.044 -3.4867 0.0 0
M  V30 34 N -13.3441 -1.241 0.0 0
M  V30 35 C -14.6442 -1.9856 0.0 0
M  V30 36 C -15.9444 -1.241 0.0 0
M  V30 37 O -17.2445 -1.9856 0.0 0
M  V30 END ATOM
M  V30 BEGIN BOND
M  V30 1 2 1 2
M  V30 2 1 2 3
M  V30 3 1 2 4
M  V30 4 1 3 5
M  V30 5 1 4 6
M  V30 6 1 4 7
M  V30 7 1 7 8
M  V30 8 2 8 9
M  V30 9 1 8 10
M  V30 10 1 9 11
M  V30 11 2 10 12
M  V30 12 2 11 13
M  V30 13 1 13 14
M  V30 14 2 14 15
M  V30 15 1 14 16
M  V30 16 1 15 17
M  V30 17 1 15 18
M  V30 18 2 16 19
M  V30 19 1 16 20
M  V30 20 2 17 21
M  V30 21 1 17 22
M  V30 22 1 21 23
M  V30 23 1 22 24
M  V30 24 2 22 25
M  V30 25 2 23 26
M  V30 26 1 24 27
M  V30 27 1 24 28
M  V30 28 1 26 29
M  V30 29 2 27 30
M  V30 30 2 28 31
M  V30 31 1 28 32
M  V30 32 2 29 33
M  V30 33 1 29 34
M  V30 34 1 34 35
M  V30 35 1 35 36
M  V30 36 1 36 37
M  V30 37 1 5 6
M  V30 38 1 12 13
M  V30 39 1 19 21
M  V30 40 1 25 26
M  V30 41 1 30 31
M  V30 END BOND
M  V30 END CTAB
M  END
>  <Molecule Name>
Compound 20

>  <FORMATTED_ID>
H3D-005516

>  <SMILES>
Cc1cc2nc(C(=O)NCCO)cc(-n3nccc3C)c2c(C)c1-c1ccc(CN2CCOC2=O)cc1

>  <MOLFORMULA>
C28H29N5O4

>  <Exact Mass>
3,25

>  <XLogP>
499,22

>  <TPSA_NOPS>
109,6

>  <IC50>


>  <EC50>


>  <CC50>


$$$$
Compound 21
Actelion Java MolfileCreator 2.0

  0  0  0  0  0  0              0 V3000
M  V30 BEGIN CTAB
M  V30 COUNTS 33 37 0 0 0
M  V30 BEGIN ATOM
M  V30 1 O 0.0 0.0 0.0 0
M  V30 2 C 0.0 1.5007 0.0 0
M  V30 3 C -1.2998 -0.7444 0.0 0
M  V30 4 C -1.2998 2.2451 0.0 0
M  V30 5 C -2.5996 0.0 0.0 0
M  V30 6 N -2.5996 1.5007 0.0 0
M  V30 7 C -3.8995 2.2451 0.0 0
M  V30 8 C -5.1993 1.5007 0.0 0
M  V30 9 C -6.4991 2.2451 0.0 0
M  V30 10 C -5.1993 0.0 0.0 0
M  V30 11 C -7.799 1.5007 0.0 0
M  V30 12 C -6.4991 -0.7444 0.0 0
M  V30 13 C -7.799 0.0 0.0 0
M  V30 14 C -9.0988 -0.7444 0.0 0
M  V30 15 C -10.3986 0.0 0.0 0
M  V30 16 C -9.0988 -2.2451 0.0 0
M  V30 17 C -11.6985 -0.7444 0.0 0
M  V30 18 C -10.3986 1.5007 0.0 0
M  V30 19 C -10.3986 -2.9896 0.0 0
M  V30 20 C -7.799 -3.0014 0.0 0
M  V30 21 C -11.6985 -2.2451 0.0 0
M  V30 22 C -12.9983 0.0 0.0 0
M  V30 23 N -12.9983 -2.9896 0.0 0
M  V30 24 N -12.9983 1.5007 0.0 0
M  V30 25 C -14.2981 -0.7444 0.0 0
M  V30 26 C -14.2981 -2.2451 0.0 0
M  V30 27 N -11.7812 2.3869 0.0 0
M  V30 28 C -14.2154 2.3869 0.0 0
M  V30 29 C -15.598 -2.9896 0.0 0
M  V30 30 C -12.242 3.8167 0.0 0
M  V30 31 C -13.7546 3.8167 0.0 0
M  V30 32 C -15.6452 1.9261 0.0 0
M  V30 33 O -15.598 -4.4903 0.0 0
M  V30 END ATOM
M  V30 BEGIN BOND
M  V30 1 1 1 2
M  V30 2 1 1 3
M  V30 3 1 2 4
M  V30 4 1 3 5
M  V30 5 1 4 6
M  V30 6 1 6 7
M  V30 7 1 7 8
M  V30 8 2 8 9
M  V30 9 1 8 10
M  V30 10 1 9 11
M  V30 11 2 10 12
M  V30 12 2 11 13
M  V30 13 1 13 14
M  V30 14 2 14 15
M  V30 15 1 14 16
M  V30 16 1 15 17
M  V30 17 1 15 18
M  V30 18 2 16 19
M  V30 19 1 16 20
M  V30 20 2 17 21
M  V30 21 1 17 22
M  V30 22 1 21 23
M  V30 23 1 22 24
M  V30 24 2 22 25
M  V30 25 2 23 26
M  V30 26 1 24 27
M  V30 27 1 24 28
M  V30 28 1 26 29
M  V30 29 2 27 30
M  V30 30 2 28 31
M  V30 31 1 28 32
M  V30 32 1 29 33
M  V30 33 1 5 6
M  V30 34 1 12 13
M  V30 35 1 19 21
M  V30 36 1 25 26
M  V30 37 1 30 31
M  V30 END BOND
M  V30 END CTAB
M  END
>  <Molecule Name>
Compound 21

>  <FORMATTED_ID>
H3D-006902

>  <SMILES>
Cc1cc2nc(CO)cc(-n3nccc3C)c2c(C)c1-c1ccc(CN2CCOCC2)cc1

>  <MOLFORMULA>
C27H30N4O2

>  <Exact Mass>
3,87

>  <XLogP>
442,24

>  <TPSA_NOPS>
63,4

>  <IC50>


>  <EC50>


>  <CC50>


$$$$
Compound 22
Actelion Java MolfileCreator 2.0

  0  0  0  0  0  0              0 V3000
M  V30 BEGIN CTAB
M  V30 COUNTS 31 34 0 0 0
M  V30 BEGIN ATOM
M  V30 1 O 0.0 0.0 0.0 0
M  V30 2 C -1.3008 -0.745 0.0 0
M  V30 3 N -2.6016 0.0 0.0 0
M  V30 4 C -1.3008 -2.2468 0.0 0
M  V30 5 C -3.9024 -0.745 0.0 0
M  V30 6 N -2.6016 -2.9918 0.0 0
M  V30 7 C 0.0 -2.9918 0.0 0
M  V30 8 C -5.2032 0.0 0.0 0
M  V30 9 C -2.6016 -4.4937 0.0 0
M  V30 10 C 0.0 -4.4937 0.0 0
M  V30 11 O -5.2032 1.5018 0.0 0
M  V30 12 O -6.504 -0.745 0.0 0 CHG=-1
M  V30 13 C -1.3008 -5.2387 0.0 0
M  V30 14 C -3.9024 -5.2387 0.0 0
M  V30 15 N 1.3008 -5.2387 0.0 0
M  V30 16 C -1.3008 -6.7405 0.0 0
M  V30 17 C -3.9024 -6.7405 0.0 0
M  V30 18 N 1.4545 -6.7287 0.0 0
M  V30 19 C 2.6725 -4.6237 0.0 0
M  V30 20 C -2.6016 -7.4855 0.0 0
M  V30 21 C 0.0 -7.4855 0.0 0
M  V30 22 C -5.2032 -7.4855 0.0 0
M  V30 23 C 2.9209 -7.0362 0.0 0
M  V30 24 C 3.6777 -5.7354 0.0 0
M  V30 25 C 2.98 -3.1574 0.0 0
M  V30 26 C -2.6016 -8.9874 0.0 0
M  V30 27 C -3.9024 -9.7324 0.0 0
M  V30 28 C -1.3008 -9.7324 0.0 0
M  V30 29 C -3.9024 -11.2342 0.0 0
M  V30 30 C -1.3008 -11.2342 0.0 0
M  V30 31 N -2.6016 -11.9793 0.0 0
M  V30 END ATOM
M  V30 BEGIN BOND
M  V30 1 2 1 2
M  V30 2 1 2 3
M  V30 3 1 2 4
M  V30 4 1 3 5
M  V30 5 2 4 6
M  V30 6 1 4 7
M  V30 7 1 5 8
M  V30 8 1 6 9
M  V30 9 2 7 10
M  V30 10 2 8 11
M  V30 11 1 8 12
M  V30 12 2 9 13
M  V30 13 1 9 14
M  V30 14 1 10 15
M  V30 15 1 13 16
M  V30 16 2 14 17
M  V30 17 1 15 18
M  V30 18 1 15 19
M  V30 19 2 16 20
M  V30 20 1 16 21
M  V30 21 1 17 22
M  V30 22 2 18 23
M  V30 23 2 19 24
M  V30 24 1 19 25
M  V30 25 1 20 26
M  V30 26 2 26 27
M  V30 27 1 26 28
M  V30 28 1 27 29
M  V30 29 2 28 30
M  V30 30 2 29 31
M  V30 31 1 10 13
M  V30 32 1 17 20
M  V30 33 1 23 24
M  V30 34 1 30 31
M  V30 END BOND
M  V30 END CTAB
M  END
>  <Molecule Name>
Compound 22

>  <FORMATTED_ID>
H3D-008198

>  <SMILES>
Cc1cc2nc(C(=O)NCC(=O)[O-])cc(-n3nccc3C)c2c(C)c1-c1ccncc1

>  <MOLFORMULA>
C23H21N5O3

>  <Exact Mass>
2

>  <XLogP>
415,16

>  <TPSA_NOPS>
110

>  <IC50>


>  <EC50>


>  <CC50>


$$$$
Compound 23
Actelion Java MolfileCreator 2.0

  0  0  0  0  0  0              0 V3000
M  V30 BEGIN CTAB
M  V30 COUNTS 32 35 0 0 0
M  V30 BEGIN ATOM
M  V30 1 F 0.0 0.0 0.0 0
M  V30 2 C 1.3008 0.745 0.0 0
M  V30 3 C 1.3008 2.2469 0.0 0
M  V30 4 C 2.6017 0.0 0.0 0
M  V30 5 C 0.0 2.992 0.0 0
M  V30 6 C 2.6017 2.992 0.0 0
M  V30 7 C 3.9026 0.745 0.0 0
M  V30 8 C 0.0 4.4939 0.0 0
M  V30 9 C -1.3008 2.2469 0.0 0
M  V30 10 C 3.9026 2.2469 0.0 0
M  V30 11 C -1.3008 5.2389 0.0 0
M  V30 12 C 1.3008 5.2389 0.0 0
M  V30 13 C -2.6017 2.992 0.0 0
M  V30 14 N -2.6017 4.4939 0.0 0
M  V30 15 C -1.3008 6.7408 0.0 0
M  V30 16 C 1.3008 6.7408 0.0 0
M  V30 17 C 2.6017 4.4939 0.0 0
M  V30 18 C -3.9026 2.2469 0.0 0
M  V30 19 C 0.0 7.4859 0.0 0
M  V30 20 C 2.6017 7.4859 0.0 0
M  V30 21 O -3.9026 0.745 0.0 0
M  V30 22 N -5.2034 2.992 0.0 0
M  V30 23 C 0.0 8.9878 0.0 0
M  V30 24 C 3.9026 6.7408 0.0 0
M  V30 25 C 2.6017 8.9878 0.0 0
M  V30 26 C -6.5043 2.2469 0.0 0
M  V30 27 C 5.2034 7.4859 0.0 0
M  V30 28 C 3.9026 9.7328 0.0 0
M  V30 29 C -7.8052 2.992 0.0 0
M  V30 30 N 5.2034 8.9878 0.0 0
M  V30 31 O -7.8052 4.4939 0.0 0
M  V30 32 O -9.1061 2.2469 0.0 0 CHG=-1
M  V30 END ATOM
M  V30 BEGIN BOND
M  V30 1 1 1 2
M  V30 2 2 2 3
M  V30 3 1 2 4
M  V30 4 1 3 5
M  V30 5 1 3 6
M  V30 6 2 4 7
M  V30 7 1 5 8
M  V30 8 2 5 9
M  V30 9 2 6 10
M  V30 10 2 8 11
M  V30 11 1 8 12
M  V30 12 1 9 13
M  V30 13 1 11 14
M  V30 14 1 11 15
M  V30 15 2 12 16
M  V30 16 1 12 17
M  V30 17 1 13 18
M  V30 18 2 15 19
M  V30 19 1 16 20
M  V30 20 2 18 21
M  V30 21 1 18 22
M  V30 22 1 19 23
M  V30 23 2 20 24
M  V30 24 1 20 25
M  V30 25 1 22 26
M  V30 26 1 24 27
M  V30 27 2 25 28
M  V30 28 1 26 29
M  V30 29 2 27 30
M  V30 30 2 29 31
M  V30 31 1 29 32
M  V30 32 1 7 10
M  V30 33 2 13 14
M  V30 34 1 16 19
M  V30 35 1 28 30
M  V30 END BOND
M  V30 END CTAB
M  END
>  <Molecule Name>
Compound 23

>  <FORMATTED_ID>
H3D-008521

>  <SMILES>
Cc1cc2nc(C(=O)NCC(=O)[O-])cc(-c3ccccc3F)c2c(C)c1-c1ccncc1

>  <MOLFORMULA>
C25H20FN3O3

>  <Exact Mass>
3,54

>  <XLogP>
429,15

>  <TPSA_NOPS>
92,2

>  <IC50>


>  <EC50>


>  <CC50>


$$$$
Compound 25
Actelion Java MolfileCreator 2.0

  0  0  0  0  0  0              0 V3000
M  V30 BEGIN CTAB
M  V30 COUNTS 38 42 0 0 0
M  V30 BEGIN ATOM
M  V30 1 O 0.0 0.0 0.0 0
M  V30 2 C -1.3007 -0.745 0.0 0
M  V30 3 N -2.6015 0.0 0.0 0
M  V30 4 C -1.3007 -2.2468 0.0 0
M  V30 5 C -3.9023 -0.745 0.0 0
M  V30 6 N -2.6015 -2.9918 0.0 0
M  V30 7 C 0.0 -2.9918 0.0 0
M  V30 8 C -5.2031 0.0 0.0 0
M  V30 9 C -2.6015 -4.4936 0.0 0
M  V30 10 C 0.0 -4.4936 0.0 0
M  V30 11 O -5.2031 1.5018 0.0 0
M  V30 12 O -6.5039 -0.745 0.0 0 CHG=-1
M  V30 13 C -1.3007 -5.2386 0.0 0
M  V30 14 C -3.9023 -5.2386 0.0 0
M  V30 15 N 1.3007 -5.2386 0.0 0
M  V30 16 C -1.3007 -6.7404 0.0 0
M  V30 17 C -3.9023 -6.7404 0.0 0
M  V30 18 N 1.4545 -6.7286 0.0 0
M  V30 19 C 2.6725 -4.6237 0.0 0
M  V30 20 C -2.6015 -7.4854 0.0 0
M  V30 21 C 0.0 -7.4854 0.0 0
M  V30 22 C -5.2031 -7.4854 0.0 0
M  V30 23 C 2.9208 -7.0361 0.0 0
M  V30 24 C 3.6777 -5.7353 0.0 0
M  V30 25 C 2.98 -3.1573 0.0 0
M  V30 26 C -2.6015 -8.9873 0.0 0
M  V30 27 C -3.9023 -9.7323 0.0 0
M  V30 28 C -1.3007 -9.7323 0.0 0
M  V30 29 C -3.9023 -11.2341 0.0 0
M  V30 30 C -1.3007 -11.2341 0.0 0
M  V30 31 C -2.6015 -11.9791 0.0 0
M  V30 32 C -2.6015 -13.4809 0.0 0
M  V30 33 N -1.3007 -14.2259 0.0 0
M  V30 34 C -1.3007 -15.7278 0.0 0
M  V30 35 C 0.0 -13.4809 0.0 0
M  V30 36 C 0.0 -16.4728 0.0 0
M  V30 37 C 1.3007 -14.2259 0.0 0
M  V30 38 O 1.3007 -15.7278 0.0 0
M  V30 END ATOM
M  V30 BEGIN BOND
M  V30 1 2 1 2
M  V30 2 1 2 3
M  V30 3 1 2 4
M  V30 4 1 3 5
M  V30 5 2 4 6
M  V30 6 1 4 7
M  V30 7 1 5 8
M  V30 8 1 6 9
M  V30 9 2 7 10
M  V30 10 2 8 11
M  V30 11 1 8 12
M  V30 12 2 9 13
M  V30 13 1 9 14
M  V30 14 1 10 15
M  V30 15 1 13 16
M  V30 16 2 14 17
M  V30 17 1 15 18
M  V30 18 1 15 19
M  V30 19 2 16 20
M  V30 20 1 16 21
M  V30 21 1 17 22
M  V30 22 2 18 23
M  V30 23 2 19 24
M  V30 24 1 19 25
M  V30 25 1 20 26
M  V30 26 2 26 27
M  V30 27 1 26 28
M  V30 28 1 27 29
M  V30 29 2 28 30
M  V30 30 2 29 31
M  V30 31 1 31 32
M  V30 32 1 32 33
M  V30 33 1 33 34
M  V30 34 1 33 35
M  V30 35 1 34 36
M  V30 36 1 35 37
M  V30 37 1 36 38
M  V30 38 1 10 13
M  V30 39 1 17 20
M  V30 40 1 23 24
M  V30 41 1 30 31
M  V30 42 1 37 38
M  V30 END BOND
M  V30 END CTAB
M  END
>  <Molecule Name>
Compound 25

>  <FORMATTED_ID>
H3D-007277

>  <SMILES>
Cc1cc2nc(C(=O)NCC(=O)[O-])cc(-n3nccc3C)c2c(C)c1-c1ccc(CN2CCOCC2)cc1

>  <MOLFORMULA>
C29H31N5O4

>  <Exact Mass>
2,86

>  <XLogP>
513,24

>  <TPSA_NOPS>
109,6

>  <IC50>


>  <EC50>


>  <CC50>


$$$$
Compound 27
Actelion Java MolfileCreator 2.0

  0  0  0  0  0  0              0 V3000
M  V30 BEGIN CTAB
M  V30 COUNTS 39 43 0 0 0
M  V30 BEGIN ATOM
M  V30 1 F 0.0 0.0 0.0 0
M  V30 2 C 1.3008 0.745 0.0 0
M  V30 3 C 1.3008 2.2469 0.0 0
M  V30 4 C 2.6016 0.0 0.0 0
M  V30 5 C 0.0 2.9919 0.0 0
M  V30 6 C 2.6016 2.9919 0.0 0
M  V30 7 C 3.9025 0.745 0.0 0
M  V30 8 C 0.0 4.4938 0.0 0
M  V30 9 C -1.3008 2.2469 0.0 0
M  V30 10 C 3.9025 2.2469 0.0 0
M  V30 11 C -1.3008 5.2388 0.0 0
M  V30 12 C 1.3008 5.2388 0.0 0
M  V30 13 C -2.6016 2.9919 0.0 0
M  V30 14 N -2.6016 4.4938 0.0 0
M  V30 15 C -1.3008 6.7407 0.0 0
M  V30 16 C 1.3008 6.7407 0.0 0
M  V30 17 C 2.6016 4.4938 0.0 0
M  V30 18 C -3.9025 2.2469 0.0 0
M  V30 19 C 0.0 7.4857 0.0 0
M  V30 20 C 2.6016 7.4857 0.0 0
M  V30 21 O -3.9025 0.745 0.0 0
M  V30 22 N -5.2033 2.9919 0.0 0
M  V30 23 C 0.0 8.9876 0.0 0
M  V30 24 C 3.9025 6.7407 0.0 0
M  V30 25 C 2.6016 8.9876 0.0 0
M  V30 26 C -6.5042 2.2469 0.0 0
M  V30 27 C 5.2033 7.4857 0.0 0
M  V30 28 C 3.9025 9.7326 0.0 0
M  V30 29 C -7.805 2.9919 0.0 0
M  V30 30 C 5.2033 8.9876 0.0 0
M  V30 31 O -7.805 4.4938 0.0 0
M  V30 32 O -9.1059 2.2469 0.0 0 CHG=-1
M  V30 33 C 6.5042 9.7326 0.0 0
M  V30 34 N 6.5042 11.2345 0.0 0
M  V30 35 C 7.805 11.9796 0.0 0
M  V30 36 C 5.2033 11.9796 0.0 0
M  V30 37 C 7.805 13.4814 0.0 0
M  V30 38 C 5.2033 13.4814 0.0 0
M  V30 39 O 6.5042 14.2265 0.0 0
M  V30 END ATOM
M  V30 BEGIN BOND
M  V30 1 1 1 2
M  V30 2 2 2 3
M  V30 3 1 2 4
M  V30 4 1 3 5
M  V30 5 1 3 6
M  V30 6 2 4 7
M  V30 7 1 5 8
M  V30 8 2 5 9
M  V30 9 2 6 10
M  V30 10 2 8 11
M  V30 11 1 8 12
M  V30 12 1 9 13
M  V30 13 1 11 14
M  V30 14 1 11 15
M  V30 15 2 12 16
M  V30 16 1 12 17
M  V30 17 1 13 18
M  V30 18 2 15 19
M  V30 19 1 16 20
M  V30 20 2 18 21
M  V30 21 1 18 22
M  V30 22 1 19 23
M  V30 23 2 20 24
M  V30 24 1 20 25
M  V30 25 1 22 26
M  V30 26 1 24 27
M  V30 27 2 25 28
M  V30 28 1 26 29
M  V30 29 2 27 30
M  V30 30 2 29 31
M  V30 31 1 29 32
M  V30 32 1 30 33
M  V30 33 1 33 34
M  V30 34 1 34 35
M  V30 35 1 34 36
M  V30 36 1 35 37
M  V30 37 1 36 38
M  V30 38 1 37 39
M  V30 39 1 7 10
M  V30 40 2 13 14
M  V30 41 1 16 19
M  V30 42 1 28 30
M  V30 43 1 38 39
M  V30 END BOND
M  V30 END CTAB
M  END
>  <Molecule Name>
Compound 27

>  <FORMATTED_ID>
H3D-008418

>  <SMILES>
Cc1cc2nc(C(=O)NCC(=O)[O-])cc(-c3ccccc3F)c2c(C)c1-c1ccc(CN2CCOCC2)cc1

>  <MOLFORMULA>
C31H30FN3O4

>  <Exact Mass>
4,4

>  <XLogP>
527,22

>  <TPSA_NOPS>
91,8

>  <IC50>


>  <EC50>


>  <CC50>


$$$$
