
  Mrv2115 07222212352D          

 28 31  0  0  0  0            999 V2000
    0.9909   -3.0425    0.0000 C   0  0  0  0  0  0  0  0  0  0  0  0
    0.9909   -3.8675    0.0000 C   0  0  0  0  0  0  0  0  0  0  0  0
    1.6583   -4.3524    0.0000 N   0  0  0  0  0  0  0  0  0  0  0  0
    1.4034   -5.1370    0.0000 N   0  0  0  0  0  0  0  0  0  0  0  0
    1.8883   -5.8045    0.0000 C   0  0  0  0  0  0  0  0  0  0  0  0
    2.7088   -5.7182    0.0000 C   0  0  0  0  0  0  0  0  0  0  0  0
    3.1937   -6.3857    0.0000 C   0  0  0  0  0  0  0  0  0  0  0  0
    2.8582   -7.1393    0.0000 C   0  0  0  0  0  0  0  0  0  0  0  0
    2.0377   -7.2256    0.0000 C   0  0  0  0  0  0  0  0  0  0  0  0
    1.5528   -6.5581    0.0000 C   0  0  0  0  0  0  0  0  0  0  0  0
    0.5784   -5.1370    0.0000 C   0  0  0  0  0  0  0  0  0  0  0  0
    0.0935   -5.8045    0.0000 O   0  0  0  0  0  0  0  0  0  0  0  0
    0.3235   -4.3524    0.0000 C   0  0  0  0  0  0  0  0  0  0  0  0
   -0.4612   -4.0975    0.0000 C   0  0  0  0  0  0  0  0  0  0  0  0
   -1.0743   -4.6495    0.0000 C   0  0  0  0  0  0  0  0  0  0  0  0
   -0.9880   -5.4700    0.0000 C   0  0  0  0  0  0  0  0  0  0  0  0
   -1.7417   -5.8055    0.0000 C   0  0  0  0  0  0  0  0  0  0  0  0
   -2.2937   -5.1924    0.0000 C   0  0  0  0  0  0  0  0  0  0  0  0
   -3.1142   -5.2787    0.0000 C   0  0  0  0  0  0  0  0  0  0  0  0
   -3.4498   -6.0324    0.0000 C   0  0  0  0  0  0  0  0  0  0  0  0
   -4.2703   -6.1186    0.0000 C   0  0  0  0  0  0  0  0  0  0  0  0
   -4.7552   -5.4512    0.0000 C   0  0  0  0  0  0  0  0  0  0  0  0
   -4.4196   -4.6975    0.0000 C   0  0  0  0  0  0  0  0  0  0  0  0
   -4.9045   -4.0300    0.0000 C   0  0  0  0  0  0  0  0  0  0  0  0
   -5.7250   -4.1163    0.0000 O   0  0  0  0  0  0  0  0  0  0  0  0
   -4.5690   -3.2764    0.0000 O   0  0  0  0  0  0  0  0  0  0  0  0
   -3.5991   -4.6112    0.0000 C   0  0  0  0  0  0  0  0  0  0  0  0
   -1.8812   -4.4780    0.0000 O   0  0  0  0  0  0  0  0  0  0  0  0
  1  2  2  0  0  0  0
  2  3  4  0  0  0  0
  3  4  4  0  0  0  0
  4  5  1  0  0  0  0
  5  6  4  0  0  0  0
  6  7  4  0  0  0  0
  7  8  4  0  0  0  0
  8  9  4  0  0  0  0
  9 10  4  0  0  0  0
  5 10  4  0  0  0  0
  4 11  4  0  0  0  0
 11 12  2  0  0  0  0
 11 13  4  0  0  0  0
  2 13  4  0  0  0  0
 13 14  2  0  0  0  0
 14 15  1  4  0  0  0
 15 16  4  0  0  0  0
 16 17  4  0  0  0  0
 17 18  4  0  0  0  0
 18 19  1  0  0  0  0
 19 20  4  0  0  0  0
 20 21  4  0  0  0  0
 21 22  4  0  0  0  0
 22 23  4  0  0  0  0
 23 24  1  0  0  0  0
 24 25  2  0  0  0  0
 24 26  1  0  0  0  0
 23 27  4  0  0  0  0
 19 27  4  0  0  0  0
 18 28  4  0  0  0  0
 15 28  4  0  0  0  0
M  STY  1   1 DAT
M  SAL   1  1   3
M  SDT   1 MRV_IMPLICIT_H                                        
M  SDD   1     0.5304   -0.4125    DR    ALL  0       0  
M  SED   1 IMPL_H1
M  END
> <IC50(uM)>
2.74

> <Outcome>
0.0

> <BindingDB ID>
50971938

> <BindingDB MonomerID>
50398642

> <BindingDB Ligand Name>
CHEMBL2178110

> <Curation/DataSource>
ChEMBL

> <Article DOI>
10.1021/jm300630p

> <PMID>
22984987

> <Patent Number>
?

> <Authors>
Diao, Y; Lu, W; Jin, H; Zhu, J; Han, L; Xu, M; Gao, R; Shen, X; Zhao, Z; Liu, X; Xu, Y; Huang, J; Li, H

> <Link to Ligand in BindingDB>
http://www.bindingdb.org/bind/chemsearch/marvin/MolStructure.jsp?monomerid=50398642

> <Link to Ligand-Target Pair in BindingDB>
http://www.bindingdb.org/jsp/dbsearch/PrimarySearch_ki.jsp?energyterm=kJ/mole&tag=r21&monomerid=50398642&enzyme=Dihydroorotate+dehydrogenase&column=ki&startPg=0&Increment=50&submit=Search

> <PubChem CID>
1800461

> <PubChem SID>
163347666

$$$$

  Mrv2115 07222212352D          

 27 28  0  0  0  0            999 V2000
    1.4289   -6.6000    0.0000 C   0  0  0  0  0  0  0  0  0  0  0  0
    2.1434   -6.1875    0.0000 C   0  0  0  0  0  0  0  0  0  0  0  0
    2.8579   -6.6000    0.0000 C   0  0  0  0  0  0  0  0  0  0  0  0
    2.8579   -7.4250    0.0000 O   0  0  0  0  0  0  0  0  0  0  0  0
    3.5724   -6.1875    0.0000 C   0  0  0  0  0  0  0  0  0  0  0  0
    3.5724   -5.3625    0.0000 C   0  0  0  0  0  0  0  0  0  0  0  0
    3.5724   -4.5375    0.0000 N   0  0  0  0  0  0  0  0  0  0  0  0
    4.2868   -6.6000    0.0000 C   0  0  0  0  0  0  0  0  0  0  0  0
    4.2868   -7.4250    0.0000 O   0  0  0  0  0  0  0  0  0  0  0  0
    5.0013   -6.1875    0.0000 N   0  0  0  0  0  0  0  0  0  0  0  0
    5.7158   -6.6000    0.0000 C   0  0  0  0  0  0  0  0  0  0  0  0
    6.4302   -6.1875    0.0000 C   0  0  0  0  0  0  0  0  0  0  0  0
    7.1447   -6.6000    0.0000 C   0  0  0  0  0  0  0  0  0  0  0  0
    7.1447   -7.4250    0.0000 C   0  0  0  0  0  0  0  0  0  0  0  0
    7.8592   -7.8375    0.0000 C   0  0  0  0  0  0  0  0  0  0  0  0
    8.5737   -7.4250    0.0000 C   0  0  0  0  0  0  0  0  0  0  0  0
    9.2881   -7.8375    0.0000 C   0  0  0  0  0  0  0  0  0  0  0  0
    9.2881   -8.6625    0.0000 C   0  0  0  0  0  0  0  0  0  0  0  0
   10.0026   -9.0750    0.0000 F   0  0  0  0  0  0  0  0  0  0  0  0
    8.5737   -9.0750    0.0000 N   0  0  0  0  0  0  0  0  0  0  0  0
    7.8592   -8.6625    0.0000 C   0  0  0  0  0  0  0  0  0  0  0  0
    6.4302   -7.8375    0.0000 C   0  0  0  0  0  0  0  0  0  0  0  0
    6.4302   -8.6625    0.0000 C   0  0  0  0  0  0  0  0  0  0  0  0
    5.7158   -9.0750    0.0000 O   0  0  0  0  0  0  0  0  0  0  0  0
    7.1447   -9.0750    0.0000 O   0  0  0  0  0  0  0  0  0  0  0  0
    7.1447   -9.9000    0.0000 C   0  0  0  0  0  0  0  0  0  0  0  0
    5.7158   -7.4250    0.0000 C   0  0  0  0  0  0  0  0  0  0  0  0
  1  2  1  0  0  0  0
  2  3  1  0  0  0  0
  3  4  2  0  0  0  0
  3  5  1  0  0  0  0
  5  6  1  0  0  0  0
  6  7  3  0  0  0  0
  5  8  1  0  0  0  0
  8  9  2  0  0  0  0
  8 10  1  0  0  0  0
 10 11  1  0  0  0  0
 11 12  4  0  0  0  0
 12 13  4  0  0  0  0
 13 14  4  0  0  0  0
 14 15  1  0  0  0  0
 15 16  4  0  0  0  0
 16 17  4  0  0  0  0
 17 18  4  0  0  0  0
 18 19  1  0  0  0  0
 18 20  4  0  0  0  0
 20 21  4  0  0  0  0
 15 21  4  0  0  0  0
 14 22  4  0  0  0  0
 22 23  1  0  0  0  0
 23 24  2  0  0  0  0
 23 25  1  0  0  0  0
 25 26  1  0  0  0  0
 22 27  4  0  0  0  0
 11 27  4  0  0  0  0
M  END
> <IC50(uM)>
0.15

> <Outcome>
1.0

> <BindingDB ID>
50707379

> <BindingDB MonomerID>
50359700

> <BindingDB Ligand Name>
CHEMBL1929444

> <Curation/DataSource>
ChEMBL

> <Article DOI>
10.1016/j.bmcl.2011.10.052

> <PMID>
22078215

> <Patent Number>
?

> <Authors>
Erra, M; Moreno, I; Sanahuja, J; Andres, M; Reinoso, RF; Lozoya, E; Pizcueta, P; Godessart, N; Castro-Palomino, JC

> <Link to Ligand in BindingDB>
http://www.bindingdb.org/bind/chemsearch/marvin/MolStructure.jsp?monomerid=50359700

> <Link to Ligand-Target Pair in BindingDB>
http://www.bindingdb.org/jsp/dbsearch/PrimarySearch_ki.jsp?energyterm=kJ/mole&tag=r21&monomerid=50359700&enzyme=Dihydroorotate+dehydrogenase&column=ki&startPg=0&Increment=50&submit=Search

> <PubChem CID>
91930448

> <PubChem SID>
136963724

$$$$

  Mrv2115 07222212352D          

 24 26  0  0  0  0            999 V2000
    1.4289   -2.4750    0.0000 O   0  0  0  0  0  0  0  0  0  0  0  0
    1.4289   -1.6500    0.0000 C   0  0  0  0  0  0  0  0  0  0  0  0
    0.7145   -1.2375    0.0000 C   0  0  0  0  0  0  0  0  0  0  0  0
    0.0000   -1.6500    0.0000 O   0  0  0  0  0  0  0  0  0  0  0  0
    0.7145   -0.4125    0.0000 C   0  0  0  0  0  0  0  0  0  0  0  0
    0.0000    0.0000    0.0000 N   0  0  0  0  0  0  0  0  0  0  0  0
    0.0000    0.8250    0.0000 C   0  0  0  0  0  0  0  0  0  0  0  0
   -0.7145    1.2375    0.0000 C   0  0  0  0  0  0  0  0  0  0  0  0
   -0.7145    2.0625    0.0000 C   0  0  0  0  0  0  0  0  0  0  0  0
    0.0000    2.4750    0.0000 C   0  0  0  0  0  0  0  0  0  0  0  0
    0.7145    2.0625    0.0000 C   0  0  0  0  0  0  0  0  0  0  0  0
    1.4289    2.4750    0.0000 C   0  0  0  0  0  0  0  0  0  0  0  0
    2.1434    2.8875    0.0000 F   0  0  0  0  0  0  0  0  0  0  0  0
    1.0164    3.1895    0.0000 F   0  0  0  0  0  0  0  0  0  0  0  0
    1.8414    1.7605    0.0000 F   0  0  0  0  0  0  0  0  0  0  0  0
    0.7145    1.2375    0.0000 C   0  0  0  0  0  0  0  0  0  0  0  0
    1.4289    0.0000    0.0000 C   0  0  0  0  0  0  0  0  0  0  0  0
    1.4289    0.8250    0.0000 O   0  0  0  0  0  0  0  0  0  0  0  0
    2.1434   -0.4125    0.0000 C   0  0  0  0  0  0  0  0  0  0  0  0
    2.8579    0.0000    0.0000 C   0  0  0  0  0  0  0  0  0  0  0  0
    3.5724   -0.4125    0.0000 C   0  0  0  0  0  0  0  0  0  0  0  0
    3.5724   -1.2375    0.0000 C   0  0  0  0  0  0  0  0  0  0  0  0
    2.8579   -1.6500    0.0000 C   0  0  0  0  0  0  0  0  0  0  0  0
    2.1434   -1.2375    0.0000 C   0  0  0  0  0  0  0  0  0  0  0  0
  1  2  2  0  0  0  0
  2  3  1  0  0  0  0
  3  4  1  0  0  0  0
  3  5  2  0  0  0  0
  5  6  1  0  0  0  0
  6  7  1  0  0  0  0
  7  8  4  0  0  0  0
  8  9  4  0  0  0  0
  9 10  4  0  0  0  0
 10 11  4  0  0  0  0
 11 12  1  0  0  0  0
 12 13  1  0  0  0  0
 12 14  1  0  0  0  0
 12 15  1  0  0  0  0
 11 16  4  0  0  0  0
  7 16  4  0  0  0  0
  5 17  1  0  0  0  0
 17 18  2  0  0  0  0
 17 19  1  0  0  0  0
 19 20  4  0  0  0  0
 20 21  4  0  0  0  0
 21 22  4  0  0  0  0
 22 23  4  0  0  0  0
 23 24  4  0  0  0  0
 19 24  4  0  0  0  0
  2 24  1  0  0  0  0
M  END
> <IC50(uM)>
0.108

> <Outcome>
1.0

> <BindingDB ID>
51282849

> <BindingDB MonomerID>
50523227

> <BindingDB Ligand Name>
CHEMBL4472078

> <Curation/DataSource>
ChEMBL

> <Article DOI>
10.1016/j.ejmech.2019.02.018

> <PMID>
30776695

> <Patent Number>
?

> <Authors>
Calil, FA; David, JS; Chiappetta, ERC; Fumagalli, F; Mello, RB; Leite, FHA; Castilho, MS; Emery, FS; Nonato, MC

> <Link to Ligand in BindingDB>
http://www.bindingdb.org/bind/chemsearch/marvin/MolStructure.jsp?monomerid=50523227

> <Link to Ligand-Target Pair in BindingDB>
http://www.bindingdb.org/jsp/dbsearch/PrimarySearch_ki.jsp?energyterm=kJ/mole&tag=r21&monomerid=50523227&enzyme=Dihydroorotate+dehydrogenase&column=ki&startPg=0&Increment=50&submit=Search

> <PubChem CID>
155535476

> <PubChem SID>
440731809

$$$$

  Mrv2115 07222212352D          

 36 38  0  0  0  0            999 V2000
    2.1434   -2.8875    0.0000 C   0  0  0  0  0  0  0  0  0  0  0  0
    2.1434   -3.7125    0.0000 C   0  0  0  0  0  0  0  0  0  0  0  0
    1.4289   -4.1250    0.0000 C   0  0  0  0  0  0  0  0  0  0  0  0
    1.4289   -4.9500    0.0000 N   0  0  0  0  0  0  0  0  0  0  0  0
    0.7615   -5.4349    0.0000 C   0  0  0  0  0  0  0  0  0  0  0  0
   -0.0231   -5.1800    0.0000 C   0  0  0  0  0  0  0  0  0  0  0  0
   -0.1946   -4.3730    0.0000 O   0  0  0  0  0  0  0  0  0  0  0  0
    1.0164   -6.2195    0.0000 N   0  0  0  0  0  0  0  0  0  0  0  0
    1.8414   -6.2195    0.0000 N   0  0  0  0  0  0  0  0  0  0  0  0
    2.3264   -6.8870    0.0000 C   0  0  0  0  0  0  0  0  0  0  0  0
    3.1468   -6.8007    0.0000 C   0  0  0  0  0  0  0  0  0  0  0  0
    3.6318   -7.4682    0.0000 C   0  0  0  0  0  0  0  0  0  0  0  0
    4.4522   -7.3820    0.0000 O   0  0  0  0  0  0  0  0  0  0  0  0
    4.7878   -6.6283    0.0000 C   0  0  0  0  0  0  0  0  0  0  0  0
    4.3029   -5.9608    0.0000 C   0  0  0  0  0  0  0  0  0  0  0  0
    5.6083   -6.5420    0.0000 C   0  0  0  0  0  0  0  0  0  0  0  0
    5.6945   -7.3625    0.0000 F   0  0  0  0  0  0  0  0  0  0  0  0
    5.5221   -5.7216    0.0000 F   0  0  0  0  0  0  0  0  0  0  0  0
    6.4288   -6.4558    0.0000 F   0  0  0  0  0  0  0  0  0  0  0  0
    3.2962   -8.2219    0.0000 C   0  0  0  0  0  0  0  0  0  0  0  0
    3.7811   -8.8893    0.0000 C   0  0  0  0  0  0  0  0  0  0  0  0
    3.4456   -9.6430    0.0000 O   0  0  0  0  0  0  0  0  0  0  0  0
    4.6016   -8.8031    0.0000 N   0  0  0  0  0  0  0  0  0  0  0  0
    5.0865   -9.4705    0.0000 C   0  0  0  0  0  0  0  0  0  0  0  0
    5.9070   -9.3843    0.0000 C   0  0  0  0  0  0  0  0  0  0  0  0
    6.2426   -8.6306    0.0000 F   0  0  0  0  0  0  0  0  0  0  0  0
    6.3919  -10.0517    0.0000 C   0  0  0  0  0  0  0  0  0  0  0  0
    6.0564  -10.8054    0.0000 C   0  0  0  0  0  0  0  0  0  0  0  0
    5.2359  -10.8916    0.0000 C   0  0  0  0  0  0  0  0  0  0  0  0
    4.7510  -10.2242    0.0000 C   0  0  0  0  0  0  0  0  0  0  0  0
    3.9305  -10.3104    0.0000 Cl  0  0  0  0  0  0  0  0  0  0  0  0
    2.4757   -8.3081    0.0000 C   0  0  0  0  0  0  0  0  0  0  0  0
    1.9908   -7.6407    0.0000 C   0  0  0  0  0  0  0  0  0  0  0  0
    1.1703   -7.7269    0.0000 F   0  0  0  0  0  0  0  0  0  0  0  0
    2.0964   -5.4349    0.0000 C   0  0  0  0  0  0  0  0  0  0  0  0
    2.8810   -5.1800    0.0000 O   0  0  0  0  0  0  0  0  0  0  0  0
  1  2  1  0  0  0  0
  2  3  1  0  0  0  0
  3  4  1  0  0  0  0
  4  5  4  0  0  0  0
  5  6  1  0  0  0  0
  6  7  1  0  0  0  0
  5  8  4  0  0  0  0
  8  9  4  0  0  0  0
  9 10  1  0  0  0  0
 10 11  4  0  0  0  0
 11 12  4  0  0  0  0
 12 13  1  0  0  0  0
 13 14  1  0  0  0  0
 14 15  1  0  0  0  0
 14 16  1  0  0  0  0
 16 17  1  0  0  0  0
 16 18  1  0  0  0  0
 16 19  1  0  0  0  0
 12 20  4  0  0  0  0
 20 21  1  0  0  0  0
 21 22  2  0  0  0  0
 21 23  1  0  0  0  0
 23 24  1  0  0  0  0
 24 25  4  0  0  0  0
 25 26  1  0  0  0  0
 25 27  4  0  0  0  0
 27 28  4  0  0  0  0
 28 29  4  0  0  0  0
 29 30  4  0  0  0  0
 24 30  4  0  0  0  0
 30 31  1  0  0  0  0
 20 32  4  0  0  0  0
 32 33  4  0  0  0  0
 10 33  4  0  0  0  0
 33 34  1  0  0  0  0
  9 35  4  0  0  0  0
  4 35  4  0  0  0  0
 35 36  2  0  0  0  0
M  END
> <IC50(uM)>
0.0028000000000000004

> <Outcome>
1.0

> <BindingDB ID>
972644; 1098798

> <BindingDB MonomerID>
470522

> <BindingDB Ligand Name>
N-(2-chloro-6-fluorophenyl)-5-fluoro-4-[3-(hydroxymethyl)-5-oxo-4-propyl-4,5-dihydro-1H-1,2,4-triazol-1-yl]-2-{[(2S)-1,1,1-trifluoropropan-2-yl]oxy}benzamide::US10815215, Example 182; N-(2-chloro-6-fluorophenyl)-5-fluoro-4-[3-(hydroxymethyl)-5-oxo-4-propyl-4,5-dihydro-1H-1,2,4-triazol-1-yl]-2-{[(2S)-1,1,1-trifluoropropan-2-yl]oxy}benzamide::US10815215, Example 182::US11130745, Example 182

> <Curation/DataSource>
US Patent

> <Article DOI>
?

> <PMID>
?

> <Patent Number>
US10815215; US11130745

> <Authors>
Gradl, SN; Nguyen, D; Eis, K; Gunther, J; Stellfeld, T; Janzer, A; Christian, S; Muller, T; Sheikh, SE; Zhou, HJ; Zhao, C; Sykes, DB; Ferrara, SJ; Liu, K; Krober, M; Merz, C; Niehues, M; Schafer, M; Zimmermann, K; Nising, CF; Gradl, SN; Nguyen, D; Eis, K; Gunther, J; Stellfeld, T; Janzer, A; Christian, S; Muller, T; Sheikh, SE; Sykes, DB; Ferrara, SJ; Krober, M; Merz, C; Niehues, M; Schafer, M; Zimmermann, K; Nising, CF

> <Link to Ligand in BindingDB>
http://www.bindingdb.org/bind/chemsearch/marvin/MolStructure.jsp?monomerid=470522

> <Link to Ligand-Target Pair in BindingDB>
http://www.bindingdb.org/jsp/dbsearch/PrimarySearch_ki.jsp?energyterm=kJ/mole&tag=r21&monomerid=470522&enzyme=Dihydroorotate+dehydrogenase&column=ki&startPg=0&Increment=50&submit=Search

> <PubChem CID>
134469746

> <PubChem SID>
441609698

$$$$

  Mrv2115 07222212352D          

 26 28  0  0  0  0            999 V2000
   -2.1434   -1.2375    0.0000 C   0  0  0  0  0  0  0  0  0  0  0  0
   -2.8579   -1.6500    0.0000 O   0  0  0  0  0  0  0  0  0  0  0  0
   -2.8579   -2.4750    0.0000 C   0  0  0  0  0  0  0  0  0  0  0  0
   -2.1434   -2.8875    0.0000 C   0  0  0  0  0  0  0  0  0  0  0  0
   -2.1434   -3.7125    0.0000 C   0  0  0  0  0  0  0  0  0  0  0  0
   -2.8579   -4.1250    0.0000 C   0  0  0  0  0  0  0  0  0  0  0  0
   -3.5724   -3.7125    0.0000 C   0  0  0  0  0  0  0  0  0  0  0  0
   -4.2868   -4.1250    0.0000 C   0  0  0  0  0  0  0  0  0  0  0  0
   -5.0013   -3.7125    0.0000 C   0  0  0  0  0  0  0  0  0  0  0  0
   -5.7158   -4.1250    0.0000 C   0  0  0  0  0  0  0  0  0  0  0  0
   -6.4302   -3.7125    0.0000 F   0  0  0  0  0  0  0  0  0  0  0  0
   -5.7158   -4.9500    0.0000 C   0  0  0  0  0  0  0  0  0  0  0  0
   -6.4302   -5.3625    0.0000 N   0  0  0  0  0  0  0  0  0  0  0  0
   -6.4302   -6.1875    0.0000 C   0  0  0  0  0  0  0  0  0  0  0  0
   -5.7158   -6.6000    0.0000 N   0  0  0  0  0  0  0  0  0  0  0  0
   -5.7158   -7.4250    0.0000 C   0  0  0  0  0  0  0  0  0  0  0  0
   -6.4302   -7.8375    0.0000 C   0  0  0  0  0  0  0  0  0  0  0  0
   -7.1447   -7.4250    0.0000 C   0  0  0  0  0  0  0  0  0  0  0  0
   -7.1447   -6.6000    0.0000 C   0  0  0  0  0  0  0  0  0  0  0  0
   -7.8592   -6.1875    0.0000 C   0  0  0  0  0  0  0  0  0  0  0  0
   -7.8592   -5.3625    0.0000 O   0  0  0  0  0  0  0  0  0  0  0  0
   -8.5737   -6.6000    0.0000 O   0  0  0  0  0  0  0  0  0  0  0  0
   -5.0013   -5.3625    0.0000 C   0  0  0  0  0  0  0  0  0  0  0  0
   -4.2868   -4.9500    0.0000 C   0  0  0  0  0  0  0  0  0  0  0  0
   -3.5724   -5.3625    0.0000 F   0  0  0  0  0  0  0  0  0  0  0  0
   -3.5724   -2.8875    0.0000 C   0  0  0  0  0  0  0  0  0  0  0  0
  1  2  1  0  0  0  0
  2  3  1  0  0  0  0
  3  4  4  0  0  0  0
  4  5  4  0  0  0  0
  5  6  4  0  0  0  0
  6  7  4  0  0  0  0
  7  8  1  0  0  0  0
  8  9  4  0  0  0  0
  9 10  4  0  0  0  0
 10 11  1  0  0  0  0
 10 12  4  0  0  0  0
 12 13  1  0  0  0  0
 13 14  1  0  0  0  0
 14 15  4  0  0  0  0
 15 16  4  0  0  0  0
 16 17  4  0  0  0  0
 17 18  4  0  0  0  0
 18 19  4  0  0  0  0
 14 19  4  0  0  0  0
 19 20  1  0  0  0  0
 20 21  2  0  0  0  0
 20 22  1  0  0  0  0
 12 23  4  0  0  0  0
 23 24  4  0  0  0  0
  8 24  4  0  0  0  0
 24 25  1  0  0  0  0
  7 26  4  0  0  0  0
  3 26  4  0  0  0  0
M  END
> <IC50(uM)>
0.088

> <Outcome>
1.0

> <BindingDB ID>
246901; 51186830

> <BindingDB MonomerID>
119808

> <BindingDB Ligand Name>
US8691852, 6

> <Curation/DataSource>
US Patent; ChEMBL

> <Article DOI>
?; 10.1007/s00044-011-9837-4

> <PMID>
?

> <Patent Number>
US8691852; ?

> <Authors>
Castro Palomino Laria, JC; Erra Sola, M; Lozoya Toribio, ME; Navarro Romero, E; n/a

> <Link to Ligand in BindingDB>
http://www.bindingdb.org/bind/chemsearch/marvin/MolStructure.jsp?monomerid=119808

> <Link to Ligand-Target Pair in BindingDB>
http://www.bindingdb.org/jsp/dbsearch/PrimarySearch_ki.jsp?energyterm=kJ/mole&tag=r21&monomerid=119808&enzyme=Dihydroorotate+dehydrogenase&column=ki&startPg=0&Increment=50&submit=Search

> <PubChem CID>
24986460

> <PubChem SID>
220230602

$$$$

  Mrv2115 07222212352D          

 23 25  0  0  0  0            999 V2000
    1.8409   -1.9019    0.0000 C   0  0  0  0  0  0  0  0  0  0  0  0
    2.6256   -1.6470    0.0000 C   0  0  0  0  0  0  0  0  0  0  0  0
    2.8805   -0.8624    0.0000 C   0  0  0  0  0  0  0  0  0  0  0  0
    2.3956   -0.1949    0.0000 C   0  0  0  0  0  0  0  0  0  0  0  0
    2.7311    0.5587    0.0000 C   0  0  0  0  0  0  0  0  0  0  0  0
    2.2462    1.2262    0.0000 C   0  0  0  0  0  0  0  0  0  0  0  0
    2.5818    1.9799    0.0000 C   0  0  0  0  0  0  0  0  0  0  0  0
    3.4023    2.0661    0.0000 C   0  0  0  0  0  0  0  0  0  0  0  0
    3.7378    2.8198    0.0000 C   0  0  0  0  0  0  0  0  0  0  0  0
    4.0734    3.5734    0.0000 F   0  0  0  0  0  0  0  0  0  0  0  0
    2.9841    3.1553    0.0000 F   0  0  0  0  0  0  0  0  0  0  0  0
    4.4915    2.4842    0.0000 F   0  0  0  0  0  0  0  0  0  0  0  0
    3.8872    1.3987    0.0000 C   0  0  0  0  0  0  0  0  0  0  0  0
    3.5516    0.6450    0.0000 C   0  0  0  0  0  0  0  0  0  0  0  0
    3.7055   -0.8624    0.0000 C   0  0  0  0  0  0  0  0  0  0  0  0
    3.9604   -1.6470    0.0000 N   0  0  0  0  0  0  0  0  0  0  0  0
    3.2930   -2.1319    0.0000 C   0  0  0  0  0  0  0  0  0  0  0  0
    3.2930   -2.9569    0.0000 C   0  0  0  0  0  0  0  0  0  0  0  0
    2.5785   -3.3694    0.0000 O   0  0  0  0  0  0  0  0  0  0  0  0
    4.0075   -3.3694    0.0000 N   0  0  0  0  0  0  0  0  0  0  0  0
    4.0075   -4.1944    0.0000 C   0  0  0  0  0  0  0  0  0  0  0  0
    4.4200   -4.9089    0.0000 C   0  0  0  0  0  0  0  0  0  0  0  0
    3.5950   -4.9089    0.0000 C   0  0  0  0  0  0  0  0  0  0  0  0
  1  2  1  0  0  0  0
  2  3  4  0  0  0  0
  3  4  1  0  0  0  0
  4  5  1  0  0  0  0
  5  6  4  0  0  0  0
  6  7  4  0  0  0  0
  7  8  4  0  0  0  0
  8  9  1  0  0  0  0
  9 10  1  0  0  0  0
  9 11  1  0  0  0  0
  9 12  1  0  0  0  0
  8 13  4  0  0  0  0
 13 14  4  0  0  0  0
  5 14  4  0  0  0  0
  3 15  4  0  0  0  0
 15 16  4  0  0  0  0
 16 17  4  0  0  0  0
  2 17  4  0  0  0  0
 17 18  1  0  0  0  0
 18 19  2  0  0  0  0
 18 20  1  0  0  0  0
 20 21  1  0  0  0  0
 21 22  1  0  0  0  0
 22 23  1  0  0  0  0
 21 23  1  0  0  0  0
M  STY  1   1 DAT
M  SAL   1  1  16
M  SDT   1 MRV_IMPLICIT_H                                        
M  SDD   1     0.5304   -0.4125    DR    ALL  0       0  
M  SED   1 IMPL_H1
M  END
> <IC50(uM)>
100.0

> <Outcome>
0.0

> <BindingDB ID>
51330109

> <BindingDB MonomerID>
50538357

> <BindingDB Ligand Name>
CHEMBL4643360

> <Curation/DataSource>
ChEMBL

> <Article DOI>
10.1021/acs.jmedchem.0c00311

> <PMID>
32248693

> <Patent Number>
?

> <Authors>
Kokkonda, S; Deng, X; White, KL; El Mazouni, F; White, J; Shackleford, DM; Katneni, K; Chiu, FCK; Barker, H; McLaren, J; Crighton, E; Chen, G; Angulo-Barturen, I; Jimenez-Diaz, MB; Ferrer, S; Huertas-Valentin, L; Martinez-Martinez, MS; Lafuente-Monasterio, MJ; Chittimalla, R; Shahi, SP; Wittlin, S; Waterson, D; Burrows, JN; Matthews, D; Tomchick, D; Rathod, PK; Palmer, MJ; Charman, SA; Phillips, MA

> <Link to Ligand in BindingDB>
http://www.bindingdb.org/bind/chemsearch/marvin/MolStructure.jsp?monomerid=50538357

> <Link to Ligand-Target Pair in BindingDB>
http://www.bindingdb.org/jsp/dbsearch/PrimarySearch_ki.jsp?energyterm=kJ/mole&tag=r21&monomerid=50538357&enzyme=Dihydroorotate+dehydrogenase&column=ki&startPg=0&Increment=50&submit=Search

> <PubChem CID>
156018257

> <PubChem SID>
442139920

$$$$

  Mrv2115 07222212352D          

 22 24  0  0  0  0            999 V2000
    1.4491   -2.1291    0.0000 C   0  0  0  0  0  0  0  0  0  0  0  0
    1.6206   -1.3221    0.0000 C   0  0  0  0  0  0  0  0  0  0  0  0
    2.4052   -1.0672    0.0000 O   0  0  0  0  0  0  0  0  0  0  0  0
    2.5768   -0.2602    0.0000 C   0  0  0  0  0  0  0  0  0  0  0  0
    1.9637    0.2918    0.0000 O   0  0  0  0  0  0  0  0  0  0  0  0
    3.3614   -0.0053    0.0000 C   0  0  0  0  0  0  0  0  0  0  0  0
    3.6163    0.7793    0.0000 S   0  0  0  0  0  0  0  0  0  0  0  0
    4.4413    0.7793    0.0000 C   0  0  0  0  0  0  0  0  0  0  0  0
    4.9263    1.4468    0.0000 N   0  0  0  0  0  0  0  0  0  0  0  0
    5.7467    1.3605    0.0000 C   0  0  0  0  0  0  0  0  0  0  0  0
    6.2317    2.0280    0.0000 C   0  0  0  0  0  0  0  0  0  0  0  0
    7.0521    1.9418    0.0000 C   0  0  0  0  0  0  0  0  0  0  0  0
    7.3877    1.1881    0.0000 C   0  0  0  0  0  0  0  0  0  0  0  0
    8.2082    1.1018    0.0000 C   0  0  0  0  0  0  0  0  0  0  0  0
    6.9028    0.5206    0.0000 C   0  0  0  0  0  0  0  0  0  0  0  0
    7.2383   -0.2330    0.0000 C   0  0  0  0  0  0  0  0  0  0  0  0
    6.0823    0.6069    0.0000 C   0  0  0  0  0  0  0  0  0  0  0  0
    4.6963   -0.0053    0.0000 N   0  0  0  0  0  0  0  0  0  0  0  0
    4.0288   -0.4902    0.0000 C   0  0  0  0  0  0  0  0  0  0  0  0
    4.0288   -1.3152    0.0000 C   0  0  0  0  0  0  0  0  0  0  0  0
    4.4413   -2.0297    0.0000 C   0  0  0  0  0  0  0  0  0  0  0  0
    3.6163   -2.0297    0.0000 C   0  0  0  0  0  0  0  0  0  0  0  0
  1  2  1  0  0  0  0
  2  3  1  0  0  0  0
  3  4  1  0  0  0  0
  4  5  2  0  0  0  0
  4  6  1  0  0  0  0
  6  7  4  0  0  0  0
  7  8  4  0  0  0  0
  8  9  1  0  0  0  0
  9 10  1  0  0  0  0
 10 11  4  0  0  0  0
 11 12  4  0  0  0  0
 12 13  4  0  0  0  0
 13 14  1  0  0  0  0
 13 15  4  0  0  0  0
 15 16  1  0  0  0  0
 15 17  4  0  0  0  0
 10 17  4  0  0  0  0
  8 18  4  0  0  0  0
 18 19  4  0  0  0  0
  6 19  4  0  0  0  0
 19 20  1  0  0  0  0
 20 21  1  0  0  0  0
 21 22  1  0  0  0  0
 20 22  1  0  0  0  0
M  END
> <IC50(uM)>
0.325

> <Outcome>
1.0

> <BindingDB ID>
50312277

> <BindingDB MonomerID>
50071630

> <BindingDB Ligand Name>
CHEMBL3410588

> <Curation/DataSource>
ChEMBL

> <Article DOI>
10.1021/jm501127s

> <PMID>
25580811

> <Patent Number>
?

> <Authors>
Zhu, J; Han, L; Diao, Y; Ren, X; Xu, M; Xu, L; Li, S; Li, Q; Dong, D; Huang, J; Liu, X; Zhao, Z; Wang, R; Zhu, L; Xu, Y; Qian, X; Li, H

> <Link to Ligand in BindingDB>
http://www.bindingdb.org/bind/chemsearch/marvin/MolStructure.jsp?monomerid=50071630

> <Link to Ligand-Target Pair in BindingDB>
http://www.bindingdb.org/jsp/dbsearch/PrimarySearch_ki.jsp?energyterm=kJ/mole&tag=r21&monomerid=50071630&enzyme=Dihydroorotate+dehydrogenase&column=ki&startPg=0&Increment=50&submit=Search

> <PubChem CID>
118732504

> <PubChem SID>
313072562

$$$$

  Mrv2115 07222212352D          

 36 38  0  0  0  0            999 V2000
    4.2868   -2.4750    0.0000 C   0  0  0  0  0  0  0  0  0  0  0  0
    3.5724   -2.8875    0.0000 C   0  0  0  0  0  0  0  0  0  0  0  0
    2.8579   -2.4750    0.0000 O   0  0  0  0  0  0  0  0  0  0  0  0
    2.1434   -2.8875    0.0000 C   0  0  0  0  0  0  0  0  0  0  0  0
    2.1434   -3.7125    0.0000 C   0  0  0  0  0  0  0  0  0  0  0  0
    1.4289   -4.1250    0.0000 C   0  0  0  0  0  0  0  0  0  0  0  0
    1.4289   -4.9500    0.0000 N   0  0  0  0  0  0  0  0  0  0  0  0
    2.0964   -5.4349    0.0000 N   0  0  0  0  0  0  0  0  0  0  0  0
    1.8414   -6.2195    0.0000 C   0  0  0  0  0  0  0  0  0  0  0  0
    2.3264   -6.8870    0.0000 C   0  0  0  0  0  0  0  0  0  0  0  0
    2.8113   -7.5544    0.0000 F   0  0  0  0  0  0  0  0  0  0  0  0
    2.9938   -6.4021    0.0000 F   0  0  0  0  0  0  0  0  0  0  0  0
    1.6589   -7.3719    0.0000 F   0  0  0  0  0  0  0  0  0  0  0  0
    1.0164   -6.2195    0.0000 N   0  0  0  0  0  0  0  0  0  0  0  0
    0.5315   -6.8870    0.0000 C   0  0  0  0  0  0  0  0  0  0  0  0
    0.7615   -5.4349    0.0000 C   0  0  0  0  0  0  0  0  0  0  0  0
   -0.0231   -5.1800    0.0000 O   0  0  0  0  0  0  0  0  0  0  0  0
    0.7145   -3.7125    0.0000 C   0  0  0  0  0  0  0  0  0  0  0  0
    0.0000   -4.1250    0.0000 F   0  0  0  0  0  0  0  0  0  0  0  0
    0.7145   -2.8875    0.0000 C   0  0  0  0  0  0  0  0  0  0  0  0
    1.4289   -2.4750    0.0000 C   0  0  0  0  0  0  0  0  0  0  0  0
    1.4289   -1.6500    0.0000 C   0  0  0  0  0  0  0  0  0  0  0  0
    2.1434   -1.2375    0.0000 O   0  0  0  0  0  0  0  0  0  0  0  0
    0.7145   -1.2375    0.0000 N   0  0  0  0  0  0  0  0  0  0  0  0
    0.7145   -0.4125    0.0000 C   0  0  0  0  0  0  0  0  0  0  0  0
    0.0000    0.0000    0.0000 C   0  0  0  0  0  0  0  0  0  0  0  0
   -0.7145   -0.4125    0.0000 F   0  0  0  0  0  0  0  0  0  0  0  0
    0.0000    0.8250    0.0000 C   0  0  0  0  0  0  0  0  0  0  0  0
    0.7145    1.2375    0.0000 C   0  0  0  0  0  0  0  0  0  0  0  0
    1.4289    0.8250    0.0000 C   0  0  0  0  0  0  0  0  0  0  0  0
    1.4289    0.0000    0.0000 C   0  0  0  0  0  0  0  0  0  0  0  0
    2.1434   -0.4125    0.0000 F   0  0  0  0  0  0  0  0  0  0  0  0
    3.5724   -3.7125    0.0000 C   0  0  0  0  0  0  0  0  0  0  0  0
    2.7474   -3.7125    0.0000 F   0  0  0  0  0  0  0  0  0  0  0  0
    4.3974   -3.7125    0.0000 F   0  0  0  0  0  0  0  0  0  0  0  0
    3.5724   -4.5375    0.0000 F   0  0  0  0  0  0  0  0  0  0  0  0
  1  2  1  0  0  0  0
  2  3  1  0  0  0  0
  3  4  1  0  0  0  0
  4  5  4  0  0  0  0
  5  6  4  0  0  0  0
  6  7  1  0  0  0  0
  7  8  4  0  0  0  0
  8  9  4  0  0  0  0
  9 10  1  0  0  0  0
 10 11  1  0  0  0  0
 10 12  1  0  0  0  0
 10 13  1  0  0  0  0
  9 14  4  0  0  0  0
 14 15  1  0  0  0  0
 14 16  4  0  0  0  0
  7 16  4  0  0  0  0
 16 17  2  0  0  0  0
  6 18  4  0  0  0  0
 18 19  1  0  0  0  0
 18 20  4  0  0  0  0
 20 21  4  0  0  0  0
  4 21  4  0  0  0  0
 21 22  1  0  0  0  0
 22 23  2  0  0  0  0
 22 24  1  0  0  0  0
 24 25  1  0  0  0  0
 25 26  4  0  0  0  0
 26 27  1  0  0  0  0
 26 28  4  0  0  0  0
 28 29  4  0  0  0  0
 29 30  4  0  0  0  0
 30 31  4  0  0  0  0
 25 31  4  0  0  0  0
 31 32  1  0  0  0  0
  2 33  1  0  0  0  0
 33 34  1  0  0  0  0
 33 35  1  0  0  0  0
 33 36  1  0  0  0  0
M  END
> <IC50(uM)>
0.09

> <Outcome>
1.0

> <BindingDB ID>
972525; 1098679

> <BindingDB MonomerID>
470400

> <BindingDB Ligand Name>
N-(2,6-difluorophenyl)-5-fluoro-4-[4-methyl-5-oxo-3-(trifluoromethyl)-4,5-dihydro-1H-1,2,4-triazol-1-yl]-2-{[(2S)-1,1,1-trifluoropropan-2-yl]oxy}benzamide::US10815215, Example 59; N-(2,6-difluorophenyl)-5-fluoro-4-[4-methyl-5-oxo-3-(trifluoromethyl)-4,5-dihydro-1H-1,2,4-triazol-1-yl]-2-{[(2S)-1,1,1-trifluoropropan-2-yl]oxy}benzamide::US10815215, Example 59::US11130745, Example 59

> <Curation/DataSource>
US Patent

> <Article DOI>
?

> <PMID>
?

> <Patent Number>
US10815215; US11130745

> <Authors>
Gradl, SN; Nguyen, D; Eis, K; Gunther, J; Stellfeld, T; Janzer, A; Christian, S; Muller, T; Sheikh, SE; Zhou, HJ; Zhao, C; Sykes, DB; Ferrara, SJ; Liu, K; Krober, M; Merz, C; Niehues, M; Schafer, M; Zimmermann, K; Nising, CF; Gradl, SN; Nguyen, D; Eis, K; Gunther, J; Stellfeld, T; Janzer, A; Christian, S; Muller, T; Sheikh, SE; Sykes, DB; Ferrara, SJ; Krober, M; Merz, C; Niehues, M; Schafer, M; Zimmermann, K; Nising, CF

> <Link to Ligand in BindingDB>
http://www.bindingdb.org/bind/chemsearch/marvin/MolStructure.jsp?monomerid=470400

> <Link to Ligand-Target Pair in BindingDB>
http://www.bindingdb.org/jsp/dbsearch/PrimarySearch_ki.jsp?energyterm=kJ/mole&tag=r21&monomerid=470400&enzyme=Dihydroorotate+dehydrogenase&column=ki&startPg=0&Increment=50&submit=Search

> <PubChem CID>
134469841

> <PubChem SID>
441609577

$$$$

  Mrv2115 07222212352D          

 37 40  0  0  0  0            999 V2000
    0.0000   -4.1250    0.0000 C   0  0  0  0  0  0  0  0  0  0  0  0
    0.0000   -4.9500    0.0000 C   0  0  0  0  0  0  0  0  0  0  0  0
   -0.6674   -5.4349    0.0000 N   0  0  0  0  0  0  0  0  0  0  0  0
   -0.4125   -6.2195    0.0000 N   0  0  0  0  0  0  0  0  0  0  0  0
   -0.8974   -6.8870    0.0000 C   0  0  0  0  0  0  0  0  0  0  0  0
   -0.5619   -7.6407    0.0000 C   0  0  0  0  0  0  0  0  0  0  0  0
   -1.0468   -8.3081    0.0000 C   0  0  0  0  0  0  0  0  0  0  0  0
   -0.7112   -9.0618    0.0000 O   0  0  0  0  0  0  0  0  0  0  0  0
    0.1093   -9.1480    0.0000 C   0  0  0  0  0  0  0  0  0  0  0  0
    0.5942   -8.4806    0.0000 C   0  0  0  0  0  0  0  0  0  0  0  0
    0.4448   -9.9017    0.0000 C   0  0  0  0  0  0  0  0  0  0  0  0
   -0.3089  -10.2372    0.0000 F   0  0  0  0  0  0  0  0  0  0  0  0
    1.1985   -9.5661    0.0000 F   0  0  0  0  0  0  0  0  0  0  0  0
    0.7804  -10.6554    0.0000 F   0  0  0  0  0  0  0  0  0  0  0  0
   -1.8673   -8.2219    0.0000 C   0  0  0  0  0  0  0  0  0  0  0  0
   -2.3522   -8.8893    0.0000 C   0  0  0  0  0  0  0  0  0  0  0  0
   -2.0166   -9.6430    0.0000 O   0  0  0  0  0  0  0  0  0  0  0  0
   -3.1727   -8.8031    0.0000 N   0  0  0  0  0  0  0  0  0  0  0  0
   -3.6576   -9.4705    0.0000 C   0  0  0  0  0  0  0  0  0  0  0  0
   -3.3220  -10.2242    0.0000 C   0  0  0  0  0  0  0  0  0  0  0  0
   -2.5016  -10.3104    0.0000 F   0  0  0  0  0  0  0  0  0  0  0  0
   -3.8070  -10.8916    0.0000 C   0  0  0  0  0  0  0  0  0  0  0  0
   -4.6274  -10.8054    0.0000 C   0  0  0  0  0  0  0  0  0  0  0  0
   -4.9630  -10.0517    0.0000 C   0  0  0  0  0  0  0  0  0  0  0  0
   -4.4781   -9.3843    0.0000 C   0  0  0  0  0  0  0  0  0  0  0  0
   -4.8136   -8.6306    0.0000 F   0  0  0  0  0  0  0  0  0  0  0  0
   -2.2028   -7.4682    0.0000 C   0  0  0  0  0  0  0  0  0  0  0  0
   -1.7179   -6.8007    0.0000 C   0  0  0  0  0  0  0  0  0  0  0  0
   -2.0535   -6.0471    0.0000 F   0  0  0  0  0  0  0  0  0  0  0  0
    0.4125   -6.2195    0.0000 C   0  0  0  0  0  0  0  0  0  0  0  0
    0.8974   -6.8870    0.0000 O   0  0  0  0  0  0  0  0  0  0  0  0
    0.6674   -5.4349    0.0000 N   0  0  0  0  0  0  0  0  0  0  0  0
    1.4521   -5.1800    0.0000 C   0  0  0  0  0  0  0  0  0  0  0  0
    1.7070   -4.3954    0.0000 C   0  0  0  0  0  0  0  0  0  0  0  0
    2.5320   -4.3954    0.0000 C   0  0  0  0  0  0  0  0  0  0  0  0
    2.7869   -5.1800    0.0000 C   0  0  0  0  0  0  0  0  0  0  0  0
    2.1195   -5.6649    0.0000 C   0  0  0  0  0  0  0  0  0  0  0  0
  1  2  1  0  0  0  0
  2  3  4  0  0  0  0
  3  4  4  0  0  0  0
  4  5  1  0  0  0  0
  5  6  4  0  0  0  0
  6  7  4  0  0  0  0
  7  8  1  0  0  0  0
  8  9  1  0  0  0  0
  9 10  1  0  0  0  0
  9 11  1  0  0  0  0
 11 12  1  0  0  0  0
 11 13  1  0  0  0  0
 11 14  1  0  0  0  0
  7 15  4  0  0  0  0
 15 16  1  0  0  0  0
 16 17  2  0  0  0  0
 16 18  1  0  0  0  0
 18 19  1  0  0  0  0
 19 20  4  0  0  0  0
 20 21  1  0  0  0  0
 20 22  4  0  0  0  0
 22 23  4  0  0  0  0
 23 24  4  0  0  0  0
 24 25  4  0  0  0  0
 19 25  4  0  0  0  0
 25 26  1  0  0  0  0
 15 27  4  0  0  0  0
 27 28  4  0  0  0  0
  5 28  4  0  0  0  0
 28 29  1  0  0  0  0
  4 30  4  0  0  0  0
 30 31  2  0  0  0  0
 30 32  4  0  0  0  0
  2 32  4  0  0  0  0
 32 33  1  0  0  0  0
 33 34  1  0  0  0  0
 34 35  1  0  0  0  0
 35 36  1  0  0  0  0
 36 37  1  0  0  0  0
 33 37  1  0  0  0  0
M  END
> <IC50(uM)>
30.0

> <Outcome>
0.0

> <BindingDB ID>
1098704

> <BindingDB MonomerID>
520268

> <BindingDB Ligand Name>
4-(4-cyclopentyl-3-methyl-5-oxo-4,5-dihydro-1H-1,2,4-triazol-1-yl)-N-(2,6-difluorophenyl)-5-fluoro-2-{[(2S)-1,1,1-trifluoropropan-2-yl]oxy}benzamide::US11130745, Example 92

> <Curation/DataSource>
US Patent

> <Article DOI>
?

> <PMID>
?

> <Patent Number>
US11130745

> <Authors>
Gradl, SN; Nguyen, D; Eis, K; Gunther, J; Stellfeld, T; Janzer, A; Christian, S; Muller, T; Sheikh, SE; Sykes, DB; Ferrara, SJ; Krober, M; Merz, C; Niehues, M; Schafer, M; Zimmermann, K; Nising, CF

> <Link to Ligand in BindingDB>
http://www.bindingdb.org/bind/chemsearch/marvin/MolStructure.jsp?monomerid=520268

> <Link to Ligand-Target Pair in BindingDB>
http://www.bindingdb.org/jsp/dbsearch/PrimarySearch_ki.jsp?energyterm=kJ/mole&tag=r21&monomerid=520268&enzyme=Dihydroorotate+dehydrogenase&column=ki&startPg=0&Increment=50&submit=Search

> <PubChem CID>
?

> <PubChem SID>
?

$$$$

  Mrv2115 07222212352D          

 21 22  0  0  0  0            999 V2000
   -0.4605   -4.3815    0.0000 C   0  0  0  0  0  0  0  0  0  0  0  0
    0.2540   -3.9690    0.0000 C   0  0  0  0  0  0  0  0  0  0  0  0
    0.9684   -4.3815    0.0000 C   0  0  0  0  0  0  0  0  0  0  0  0
    1.6829   -3.9690    0.0000 O   0  0  0  0  0  0  0  0  0  0  0  0
    2.3974   -4.3815    0.0000 C   0  0  0  0  0  0  0  0  0  0  0  0
    2.3974   -5.2065    0.0000 O   0  0  0  0  0  0  0  0  0  0  0  0
    3.1118   -3.9690    0.0000 C   0  0  0  0  0  0  0  0  0  0  0  0
    3.1981   -3.1485    0.0000 C   0  0  0  0  0  0  0  0  0  0  0  0
    2.5850   -2.5965    0.0000 O   0  0  0  0  0  0  0  0  0  0  0  0
    4.0050   -2.9770    0.0000 C   0  0  0  0  0  0  0  0  0  0  0  0
    4.4175   -3.6915    0.0000 S   0  0  0  0  0  0  0  0  0  0  0  0
    3.8655   -4.3046    0.0000 C   0  0  0  0  0  0  0  0  0  0  0  0
    4.0370   -5.1115    0.0000 N   0  0  0  0  0  0  0  0  0  0  0  0
    4.8217   -5.3665    0.0000 C   0  0  0  0  0  0  0  0  0  0  0  0
    5.4348   -4.8145    0.0000 C   0  0  0  0  0  0  0  0  0  0  0  0
    6.2194   -5.0694    0.0000 C   0  0  0  0  0  0  0  0  0  0  0  0
    6.3909   -5.8764    0.0000 C   0  0  0  0  0  0  0  0  0  0  0  0
    7.1755   -6.1313    0.0000 C   0  0  0  0  0  0  0  0  0  0  0  0
    5.7778   -6.4284    0.0000 C   0  0  0  0  0  0  0  0  0  0  0  0
    5.9493   -7.2354    0.0000 C   0  0  0  0  0  0  0  0  0  0  0  0
    4.9932   -6.1735    0.0000 C   0  0  0  0  0  0  0  0  0  0  0  0
  1  2  1  0  0  0  0
  2  3  1  0  0  0  0
  3  4  1  0  0  0  0
  4  5  1  0  0  0  0
  5  6  2  0  0  0  0
  5  7  1  0  0  0  0
  7  8  4  0  0  0  0
  8  9  1  0  0  0  0
  8 10  4  0  0  0  0
 10 11  4  0  0  0  0
 11 12  4  0  0  0  0
  7 12  4  0  0  0  0
 12 13  1  0  0  0  0
 13 14  1  0  0  0  0
 14 15  4  0  0  0  0
 15 16  4  0  0  0  0
 16 17  4  0  0  0  0
 17 18  1  0  0  0  0
 17 19  4  0  0  0  0
 19 20  1  0  0  0  0
 19 21  4  0  0  0  0
 14 21  4  0  0  0  0
M  END
> <IC50(uM)>
11.633

> <Outcome>
0.0

> <BindingDB ID>
51079162

> <BindingDB MonomerID>
50441270

> <BindingDB Ligand Name>
CHEMBL2431523

> <Curation/DataSource>
ChEMBL

> <Article DOI>
10.1021/jm400938g

> <PMID>
24073986

> <Patent Number>
?

> <Authors>
Xu, M; Zhu, J; Diao, Y; Zhou, H; Ren, X; Sun, D; Huang, J; Han, D; Zhao, Z; Zhu, L; Xu, Y; Li, H

> <Link to Ligand in BindingDB>
http://www.bindingdb.org/bind/chemsearch/marvin/MolStructure.jsp?monomerid=50441270

> <Link to Ligand-Target Pair in BindingDB>
http://www.bindingdb.org/jsp/dbsearch/PrimarySearch_ki.jsp?energyterm=kJ/mole&tag=r21&monomerid=50441270&enzyme=Dihydroorotate+dehydrogenase&column=ki&startPg=0&Increment=50&submit=Search

> <PubChem CID>
91898831

> <PubChem SID>
175453587

$$$$

  Mrv2115 07222212352D          

 26 29  0  0  0  0            999 V2000
   -0.1712   -0.6979    0.0000 C   0  0  0  0  0  0  0  0  0  0  0  0
    0.6538   -0.6979    0.0000 C   0  0  0  0  0  0  0  0  0  0  0  0
    1.1387   -0.0305    0.0000 N   0  0  0  0  0  0  0  0  0  0  0  0
    1.9233   -0.2854    0.0000 C   0  0  0  0  0  0  0  0  0  0  0  0
    2.6378    0.1271    0.0000 C   0  0  0  0  0  0  0  0  0  0  0  0
    3.3523   -0.2854    0.0000 C   0  0  0  0  0  0  0  0  0  0  0  0
    4.0668    0.1271    0.0000 O   0  0  0  0  0  0  0  0  0  0  0  0
    4.7812   -0.2854    0.0000 C   0  0  0  0  0  0  0  0  0  0  0  0
    5.4957   -0.6979    0.0000 F   0  0  0  0  0  0  0  0  0  0  0  0
    5.1937    0.4290    0.0000 F   0  0  0  0  0  0  0  0  0  0  0  0
    4.3687   -0.9999    0.0000 F   0  0  0  0  0  0  0  0  0  0  0  0
    3.3523   -1.1104    0.0000 C   0  0  0  0  0  0  0  0  0  0  0  0
    2.6378   -1.5229    0.0000 C   0  0  0  0  0  0  0  0  0  0  0  0
    1.9233   -1.1104    0.0000 C   0  0  0  0  0  0  0  0  0  0  0  0
    1.1387   -1.3654    0.0000 N   0  0  0  0  0  0  0  0  0  0  0  0
    0.8838   -2.1500    0.0000 C   0  0  0  0  0  0  0  0  0  0  0  0
    1.3687   -2.8174    0.0000 C   0  0  0  0  0  0  0  0  0  0  0  0
    0.8838   -3.4849    0.0000 C   0  0  0  0  0  0  0  0  0  0  0  0
    0.0992   -3.2299    0.0000 C   0  0  0  0  0  0  0  0  0  0  0  0
   -0.5683   -3.7149    0.0000 C   0  0  0  0  0  0  0  0  0  0  0  0
   -1.3220   -3.3793    0.0000 O   0  0  0  0  0  0  0  0  0  0  0  0
   -0.4820   -4.5353    0.0000 N   0  0  0  0  0  0  0  0  0  0  0  0
   -1.1495   -5.0203    0.0000 C   0  0  0  0  0  0  0  0  0  0  0  0
   -1.4850   -5.7739    0.0000 C   0  0  0  0  0  0  0  0  0  0  0  0
   -1.9700   -5.1065    0.0000 C   0  0  0  0  0  0  0  0  0  0  0  0
    0.0992   -2.4049    0.0000 S   0  0  0  0  0  0  0  0  0  0  0  0
  1  2  1  0  0  0  0
  2  3  4  0  0  0  0
  3  4  4  0  0  0  0
  4  5  4  0  0  0  0
  5  6  4  0  0  0  0
  6  7  1  0  0  0  0
  7  8  1  0  0  0  0
  8  9  1  0  0  0  0
  8 10  1  0  0  0  0
  8 11  1  0  0  0  0
  6 12  4  0  0  0  0
 12 13  4  0  0  0  0
 13 14  4  0  0  0  0
  4 14  4  0  0  0  0
 14 15  4  0  0  0  0
  2 15  4  0  0  0  0
 15 16  1  0  0  0  0
 16 17  4  0  0  0  0
 17 18  4  0  0  0  0
 18 19  4  0  0  0  0
 19 20  1  0  0  0  0
 20 21  2  0  0  0  0
 20 22  1  0  0  0  0
 22 23  1  0  0  0  0
 23 24  1  0  0  0  0
 24 25  1  0  0  0  0
 23 25  1  0  0  0  0
 19 26  4  0  0  0  0
 16 26  4  0  0  0  0
M  END
> <IC50(uM)>
30.0

> <Outcome>
0.0

> <BindingDB ID>
51330117

> <BindingDB MonomerID>
50379157

> <BindingDB Ligand Name>
CHEMBL1234899::US8703811, 57

> <Curation/DataSource>
ChEMBL

> <Article DOI>
10.1021/acs.jmedchem.0c00311

> <PMID>
32248693

> <Patent Number>
?

> <Authors>
Kokkonda, S; Deng, X; White, KL; El Mazouni, F; White, J; Shackleford, DM; Katneni, K; Chiu, FCK; Barker, H; McLaren, J; Crighton, E; Chen, G; Angulo-Barturen, I; Jimenez-Diaz, MB; Ferrer, S; Huertas-Valentin, L; Martinez-Martinez, MS; Lafuente-Monasterio, MJ; Chittimalla, R; Shahi, SP; Wittlin, S; Waterson, D; Burrows, JN; Matthews, D; Tomchick, D; Rathod, PK; Palmer, MJ; Charman, SA; Phillips, MA

> <Link to Ligand in BindingDB>
http://www.bindingdb.org/bind/chemsearch/marvin/MolStructure.jsp?monomerid=50379157

> <Link to Ligand-Target Pair in BindingDB>
http://www.bindingdb.org/jsp/dbsearch/PrimarySearch_ki.jsp?energyterm=kJ/mole&tag=r21&monomerid=50379157&enzyme=Dihydroorotate+dehydrogenase&column=ki&startPg=0&Increment=50&submit=Search

> <PubChem CID>
46846313

> <PubChem SID>
160858240

$$$$

  Mrv2115 07222212352D          

 24 25  0  0  0  0            999 V2000
   -0.1067   -0.0616    0.0000 C   0  0  0  0  0  0  0  0  0  0  0  0
    0.6078   -0.4741    0.0000 C   0  0  0  0  0  0  0  0  0  0  0  0
    1.3222   -0.0616    0.0000 O   0  0  0  0  0  0  0  0  0  0  0  0
    2.0367   -0.4741    0.0000 C   0  0  0  0  0  0  0  0  0  0  0  0
    2.7512   -0.0616    0.0000 O   0  0  0  0  0  0  0  0  0  0  0  0
    2.0367   -1.2991    0.0000 C   0  0  0  0  0  0  0  0  0  0  0  0
    1.3693   -1.7840    0.0000 C   0  0  0  0  0  0  0  0  0  0  0  0
    0.5846   -1.5291    0.0000 O   0  0  0  0  0  0  0  0  0  0  0  0
    1.6242   -2.5687    0.0000 C   0  0  0  0  0  0  0  0  0  0  0  0
    2.4492   -2.5687    0.0000 S   0  0  0  0  0  0  0  0  0  0  0  0
    2.7041   -1.7840    0.0000 C   0  0  0  0  0  0  0  0  0  0  0  0
    3.4888   -1.5291    0.0000 N   0  0  0  0  0  0  0  0  0  0  0  0
    4.1019   -2.0811    0.0000 C   0  0  0  0  0  0  0  0  0  0  0  0
    4.8865   -1.8262    0.0000 C   0  0  0  0  0  0  0  0  0  0  0  0
    5.4996   -2.3782    0.0000 C   0  0  0  0  0  0  0  0  0  0  0  0
    5.3281   -3.1852    0.0000 C   0  0  0  0  0  0  0  0  0  0  0  0
    5.9411   -3.7372    0.0000 S   0  0  0  0  0  0  0  0  0  0  0  0
    6.5542   -4.2893    0.0000 F   0  0  0  0  0  0  0  0  0  0  0  0
    6.7258   -3.4823    0.0000 F   0  0  0  0  0  0  0  0  0  0  0  0
    6.1127   -2.9302    0.0000 F   0  0  0  0  0  0  0  0  0  0  0  0
    5.1565   -3.9922    0.0000 F   0  0  0  0  0  0  0  0  0  0  0  0
    5.7696   -4.5442    0.0000 F   0  0  0  0  0  0  0  0  0  0  0  0
    4.5434   -3.4401    0.0000 C   0  0  0  0  0  0  0  0  0  0  0  0
    3.9303   -2.8881    0.0000 C   0  0  0  0  0  0  0  0  0  0  0  0
  1  2  1  0  0  0  0
  2  3  1  0  0  0  0
  3  4  1  0  0  0  0
  4  5  2  0  0  0  0
  4  6  1  0  0  0  0
  6  7  4  0  0  0  0
  7  8  1  0  0  0  0
  7  9  4  0  0  0  0
  9 10  4  0  0  0  0
 10 11  4  0  0  0  0
  6 11  4  0  0  0  0
 11 12  1  0  0  0  0
 12 13  1  0  0  0  0
 13 14  4  0  0  0  0
 14 15  4  0  0  0  0
 15 16  4  0  0  0  0
 16 17  1  0  0  0  0
 17 18  1  0  0  0  0
 17 19  1  0  0  0  0
 17 20  1  0  0  0  0
 17 21  1  0  0  0  0
 17 22  1  0  0  0  0
 16 23  4  0  0  0  0
 23 24  4  0  0  0  0
 13 24  4  0  0  0  0
M  END
> <IC50(uM)>
50.0

> <Outcome>
0.0

> <BindingDB ID>
51079181

> <BindingDB MonomerID>
50441289

> <BindingDB Ligand Name>
CHEMBL2431504

> <Curation/DataSource>
ChEMBL

> <Article DOI>
10.1021/jm400938g

> <PMID>
24073986

> <Patent Number>
?

> <Authors>
Xu, M; Zhu, J; Diao, Y; Zhou, H; Ren, X; Sun, D; Huang, J; Han, D; Zhao, Z; Zhu, L; Xu, Y; Li, H

> <Link to Ligand in BindingDB>
http://www.bindingdb.org/bind/chemsearch/marvin/MolStructure.jsp?monomerid=50441289

> <Link to Ligand-Target Pair in BindingDB>
http://www.bindingdb.org/jsp/dbsearch/PrimarySearch_ki.jsp?energyterm=kJ/mole&tag=r21&monomerid=50441289&enzyme=Dihydroorotate+dehydrogenase&column=ki&startPg=0&Increment=50&submit=Search

> <PubChem CID>
91898850

> <PubChem SID>
175453606

$$$$

  Mrv2115 07222212352D          

 40 44  0  0  0  0            999 V2000
   -5.1659   -2.8414    0.0000 C   0  0  0  0  0  0  0  0  0  0  0  0
   -5.5784   -2.1269    0.0000 C   0  0  0  0  0  0  0  0  0  0  0  0
   -6.4034   -2.1269    0.0000 C   0  0  0  0  0  0  0  0  0  0  0  0
   -6.8159   -1.4124    0.0000 C   0  0  0  0  0  0  0  0  0  0  0  0
   -7.6409   -1.4124    0.0000 C   0  0  0  0  0  0  0  0  0  0  0  0
   -8.4659   -1.4124    0.0000 F   0  0  0  0  0  0  0  0  0  0  0  0
   -7.6409   -2.2374    0.0000 F   0  0  0  0  0  0  0  0  0  0  0  0
   -7.6409   -0.5874    0.0000 F   0  0  0  0  0  0  0  0  0  0  0  0
   -6.4034   -0.6979    0.0000 C   0  0  0  0  0  0  0  0  0  0  0  0
   -5.5784   -0.6979    0.0000 C   0  0  0  0  0  0  0  0  0  0  0  0
   -5.1659   -1.4124    0.0000 C   0  0  0  0  0  0  0  0  0  0  0  0
   -4.3409   -1.4124    0.0000 N   0  0  0  0  0  0  0  0  0  0  0  0
   -3.9284   -0.6979    0.0000 C   0  0  0  0  0  0  0  0  0  0  0  0
   -4.3409    0.0165    0.0000 O   0  0  0  0  0  0  0  0  0  0  0  0
   -3.1034   -0.6979    0.0000 C   0  0  0  0  0  0  0  0  0  0  0  0
   -2.6909    0.0165    0.0000 C   0  0  0  0  0  0  0  0  0  0  0  0
   -1.8659    0.0165    0.0000 C   0  0  0  0  0  0  0  0  0  0  0  0
   -1.4534    0.7310    0.0000 F   0  0  0  0  0  0  0  0  0  0  0  0
   -1.4534   -0.6979    0.0000 C   0  0  0  0  0  0  0  0  0  0  0  0
   -0.6284   -0.6979    0.0000 N   0  0  0  0  0  0  0  0  0  0  0  0
   -0.1435   -1.3654    0.0000 N   0  0  0  0  0  0  0  0  0  0  0  0
    0.6411   -1.1104    0.0000 C   0  0  0  0  0  0  0  0  0  0  0  0
    0.6411   -0.2854    0.0000 N   0  0  0  0  0  0  0  0  0  0  0  0
   -0.1435   -0.0305    0.0000 C   0  0  0  0  0  0  0  0  0  0  0  0
   -0.3984    0.7541    0.0000 O   0  0  0  0  0  0  0  0  0  0  0  0
    1.3556    0.1271    0.0000 C   0  0  0  0  0  0  0  0  0  0  0  0
    2.0701   -0.2854    0.0000 C   0  0  0  0  0  0  0  0  0  0  0  0
    2.0701   -1.1104    0.0000 C   0  0  0  0  0  0  0  0  0  0  0  0
    1.3556   -1.5229    0.0000 C   0  0  0  0  0  0  0  0  0  0  0  0
   -1.8659   -1.4124    0.0000 C   0  0  0  0  0  0  0  0  0  0  0  0
   -2.6909   -1.4124    0.0000 C   0  0  0  0  0  0  0  0  0  0  0  0
   -3.1034   -2.1269    0.0000 O   0  0  0  0  0  0  0  0  0  0  0  0
   -2.6909   -2.8414    0.0000 C   0  0  0  0  0  0  0  0  0  0  0  0
   -1.8659   -2.8414    0.0000 C   0  0  0  0  0  0  0  0  0  0  0  0
   -3.1034   -3.5558    0.0000 C   0  0  0  0  0  0  0  0  0  0  0  0
   -2.6909   -4.2703    0.0000 C   0  0  0  0  0  0  0  0  0  0  0  0
   -3.1034   -4.9848    0.0000 C   0  0  0  0  0  0  0  0  0  0  0  0
   -3.9284   -4.9848    0.0000 C   0  0  0  0  0  0  0  0  0  0  0  0
   -4.3409   -4.2703    0.0000 C   0  0  0  0  0  0  0  0  0  0  0  0
   -3.9284   -3.5558    0.0000 C   0  0  0  0  0  0  0  0  0  0  0  0
  1  2  1  0  0  0  0
  2  3  4  0  0  0  0
  3  4  4  0  0  0  0
  4  5  1  0  0  0  0
  5  6  1  0  0  0  0
  5  7  1  0  0  0  0
  5  8  1  0  0  0  0
  4  9  4  0  0  0  0
  9 10  4  0  0  0  0
 10 11  4  0  0  0  0
  2 11  4  0  0  0  0
 11 12  1  0  0  0  0
 12 13  1  0  0  0  0
 13 14  2  0  0  0  0
 13 15  1  0  0  0  0
 15 16  4  0  0  0  0
 16 17  4  0  0  0  0
 17 18  1  0  0  0  0
 17 19  4  0  0  0  0
 19 20  1  0  0  0  0
 20 21  4  0  0  0  0
 21 22  4  0  0  0  0
 22 23  4  0  0  0  0
 23 24  4  0  0  0  0
 20 24  4  0  0  0  0
 24 25  2  0  0  0  0
 23 26  1  0  0  0  0
 26 27  1  0  0  0  0
 27 28  1  0  0  0  0
 28 29  1  0  0  0  0
 22 29  1  0  0  0  0
 19 30  4  0  0  0  0
 30 31  4  0  0  0  0
 15 31  4  0  0  0  0
 31 32  1  0  0  0  0
 32 33  1  0  0  0  0
 33 34  1  0  0  0  0
 33 35  1  0  0  0  0
 35 36  1  0  0  0  0
 36 37  1  0  0  0  0
 37 38  1  0  0  0  0
 38 39  1  0  0  0  0
 39 40  1  0  0  0  0
 35 40  1  0  0  0  0
M  END
> <IC50(uM)>
0.02

> <Outcome>
1.0

> <BindingDB ID>
1020564

> <BindingDB MonomerID>
490503

> <BindingDB Ligand Name>
2-[(1S)-1-cyclohexylethoxy]-5-fluoro-N-[2-methyl-4-(trifluoromethyl)phenyl]-4-(3-oxo-5,6,7,8-tetrahydro[1,2,4]triazolo[4,3-a]pyridin-2(3H)-yl)benzamide::US10968216, Example 171

> <Curation/DataSource>
US Patent

> <Article DOI>
?

> <PMID>
?

> <Patent Number>
US10968216

> <Authors>
Gradl, SN; Nguyen, D; Eis, K; Gunther, J; Stellfeld, T; Janzer, A; Christian, S; Mueller, T; Sheikh, SE; Zhou, HJ; Zhao, C; Sykes, DB; Ferrara, SJ; Liu, K; Herbert, SA; Merz, C; Niehues, M; Nising, CF; Schafer, M; Zimmermann, K; Knablein, J; Thede, K; Faupel, T

> <Link to Ligand in BindingDB>
http://www.bindingdb.org/bind/chemsearch/marvin/MolStructure.jsp?monomerid=490503

> <Link to Ligand-Target Pair in BindingDB>
http://www.bindingdb.org/jsp/dbsearch/PrimarySearch_ki.jsp?energyterm=kJ/mole&tag=r21&monomerid=490503&enzyme=Dihydroorotate+dehydrogenase&column=ki&startPg=0&Increment=50&submit=Search

> <PubChem CID>
142335846

> <PubChem SID>
447117230

$$$$

  Mrv2115 07222212352D          

 34 37  0  0  0  0            999 V2000
   -0.5837    2.8744    0.0000 C   0  0  0  0  0  0  0  0  0  0  0  0
   -0.1712    2.1599    0.0000 C   0  0  0  0  0  0  0  0  0  0  0  0
   -0.5837    1.4455    0.0000 C   0  0  0  0  0  0  0  0  0  0  0  0
   -1.4087    1.4455    0.0000 C   0  0  0  0  0  0  0  0  0  0  0  0
   -1.8212    2.1599    0.0000 C   0  0  0  0  0  0  0  0  0  0  0  0
   -1.8212    0.7310    0.0000 O   0  0  0  0  0  0  0  0  0  0  0  0
   -1.4087    0.0165    0.0000 C   0  0  0  0  0  0  0  0  0  0  0  0
   -0.5837    0.0165    0.0000 C   0  0  0  0  0  0  0  0  0  0  0  0
   -0.1712   -0.6979    0.0000 C   0  0  0  0  0  0  0  0  0  0  0  0
    0.6538   -0.6979    0.0000 N   0  0  0  0  0  0  0  0  0  0  0  0
    1.1387   -0.0305    0.0000 N   0  0  0  0  0  0  0  0  0  0  0  0
    1.9233   -0.2854    0.0000 C   0  0  0  0  0  0  0  0  0  0  0  0
    2.6378    0.1271    0.0000 C   0  0  0  0  0  0  0  0  0  0  0  0
    3.3523   -0.2854    0.0000 C   0  0  0  0  0  0  0  0  0  0  0  0
    3.3523   -1.1104    0.0000 C   0  0  0  0  0  0  0  0  0  0  0  0
    2.6378   -1.5229    0.0000 C   0  0  0  0  0  0  0  0  0  0  0  0
    1.9233   -1.1104    0.0000 N   0  0  0  0  0  0  0  0  0  0  0  0
    1.1387   -1.3654    0.0000 C   0  0  0  0  0  0  0  0  0  0  0  0
    0.8838   -2.1500    0.0000 O   0  0  0  0  0  0  0  0  0  0  0  0
   -0.5837   -1.4124    0.0000 C   0  0  0  0  0  0  0  0  0  0  0  0
   -0.1712   -2.1269    0.0000 F   0  0  0  0  0  0  0  0  0  0  0  0
   -1.4087   -1.4124    0.0000 C   0  0  0  0  0  0  0  0  0  0  0  0
   -1.8212   -0.6979    0.0000 C   0  0  0  0  0  0  0  0  0  0  0  0
   -2.6462   -0.6979    0.0000 C   0  0  0  0  0  0  0  0  0  0  0  0
   -3.0587    0.0165    0.0000 O   0  0  0  0  0  0  0  0  0  0  0  0
   -3.0587   -1.4124    0.0000 N   0  0  0  0  0  0  0  0  0  0  0  0
   -3.8837   -1.4124    0.0000 C   0  0  0  0  0  0  0  0  0  0  0  0
   -4.2962   -2.1269    0.0000 C   0  0  0  0  0  0  0  0  0  0  0  0
   -3.8837   -2.8414    0.0000 F   0  0  0  0  0  0  0  0  0  0  0  0
   -5.1212   -2.1269    0.0000 C   0  0  0  0  0  0  0  0  0  0  0  0
   -5.5337   -1.4124    0.0000 C   0  0  0  0  0  0  0  0  0  0  0  0
   -5.1212   -0.6979    0.0000 C   0  0  0  0  0  0  0  0  0  0  0  0
   -4.2962   -0.6979    0.0000 C   0  0  0  0  0  0  0  0  0  0  0  0
   -3.8837    0.0165    0.0000 F   0  0  0  0  0  0  0  0  0  0  0  0
  1  2  1  0  0  0  0
  2  3  1  0  0  0  0
  3  4  1  0  0  0  0
  4  5  1  0  0  0  0
  4  6  1  0  0  0  0
  6  7  1  0  0  0  0
  7  8  4  0  0  0  0
  8  9  4  0  0  0  0
  9 10  1  0  0  0  0
 10 11  4  0  0  0  0
 11 12  4  0  0  0  0
 12 13  4  0  0  0  0
 13 14  4  0  0  0  0
 14 15  4  0  0  0  0
 15 16  4  0  0  0  0
 16 17  4  0  0  0  0
 12 17  4  0  0  0  0
 17 18  4  0  0  0  0
 10 18  4  0  0  0  0
 18 19  2  0  0  0  0
  9 20  4  0  0  0  0
 20 21  1  0  0  0  0
 20 22  4  0  0  0  0
 22 23  4  0  0  0  0
  7 23  4  0  0  0  0
 23 24  1  0  0  0  0
 24 25  2  0  0  0  0
 24 26  1  0  0  0  0
 26 27  1  0  0  0  0
 27 28  4  0  0  0  0
 28 29  1  0  0  0  0
 28 30  4  0  0  0  0
 30 31  4  0  0  0  0
 31 32  4  0  0  0  0
 32 33  4  0  0  0  0
 27 33  4  0  0  0  0
 33 34  1  0  0  0  0
M  END
> <IC50(uM)>
0.038

> <Outcome>
1.0

> <BindingDB ID>
1020618; 1020617

> <BindingDB MonomerID>
490552

> <BindingDB Ligand Name>
N-(2,6-difluorophenyl)-5-fluoro-4-(3-oxo[1,2,4]triazolo[4,3-a]pyridin-2(3H)-yl)-2-[(2S)-pentan-2-yloxy]benzamide::US10968216, Example 220

> <Curation/DataSource>
US Patent

> <Article DOI>
?

> <PMID>
?

> <Patent Number>
US10968216

> <Authors>
Gradl, SN; Nguyen, D; Eis, K; Gunther, J; Stellfeld, T; Janzer, A; Christian, S; Mueller, T; Sheikh, SE; Zhou, HJ; Zhao, C; Sykes, DB; Ferrara, SJ; Liu, K; Herbert, SA; Merz, C; Niehues, M; Nising, CF; Schafer, M; Zimmermann, K; Knablein, J; Thede, K; Faupel, T

> <Link to Ligand in BindingDB>
http://www.bindingdb.org/bind/chemsearch/marvin/MolStructure.jsp?monomerid=490552

> <Link to Ligand-Target Pair in BindingDB>
http://www.bindingdb.org/jsp/dbsearch/PrimarySearch_ki.jsp?energyterm=kJ/mole&tag=r21&monomerid=490552&enzyme=Dihydroorotate+dehydrogenase&column=ki&startPg=0&Increment=50&submit=Search

> <PubChem CID>
134474529

> <PubChem SID>
447117278

$$$$

  Mrv2115 07222212352D          

 26 28  0  0  0  0            999 V2000
   -2.1434   11.7161    0.0000 C   0  0  0  0  0  0  0  0  0  0  0  0
   -2.1434   10.8911    0.0000 O   0  0  0  0  0  0  0  0  0  0  0  0
   -1.4289   10.4786    0.0000 C   0  0  0  0  0  0  0  0  0  0  0  0
   -0.7145   10.8911    0.0000 C   0  0  0  0  0  0  0  0  0  0  0  0
   -0.0000   10.4786    0.0000 C   0  0  0  0  0  0  0  0  0  0  0  0
   -0.0000    9.6536    0.0000 C   0  0  0  0  0  0  0  0  0  0  0  0
   -0.7145    9.2411    0.0000 C   0  0  0  0  0  0  0  0  0  0  0  0
   -0.7145    8.4161    0.0000 C   0  0  0  0  0  0  0  0  0  0  0  0
   -0.0000    8.0036    0.0000 C   0  0  0  0  0  0  0  0  0  0  0  0
   -0.0000    7.1786    0.0000 C   0  0  0  0  0  0  0  0  0  0  0  0
   -0.7145    6.7661    0.0000 C   0  0  0  0  0  0  0  0  0  0  0  0
   -0.7145    5.9411    0.0000 N   0  0  0  0  0  0  0  0  0  0  0  0
   -0.0000    5.5286    0.0000 C   0  0  0  0  0  0  0  0  0  0  0  0
    0.7145    5.9411    0.0000 O   0  0  0  0  0  0  0  0  0  0  0  0
   -0.0000    4.7036    0.0000 C   0  0  0  0  0  0  0  0  0  0  0  0
    0.6674    4.2187    0.0000 C   0  0  0  0  0  0  0  0  0  0  0  0
    1.4521    4.4736    0.0000 C   0  0  0  0  0  0  0  0  0  0  0  0
    1.6236    5.2806    0.0000 O   0  0  0  0  0  0  0  0  0  0  0  0
    2.0652    3.9216    0.0000 O   0  0  0  0  0  0  0  0  0  0  0  0
    0.4125    3.4340    0.0000 C   0  0  0  0  0  0  0  0  0  0  0  0
   -0.4125    3.4340    0.0000 O   0  0  0  0  0  0  0  0  0  0  0  0
   -0.6674    4.2187    0.0000 C   0  0  0  0  0  0  0  0  0  0  0  0
   -1.4289    7.1786    0.0000 C   0  0  0  0  0  0  0  0  0  0  0  0
   -2.1434    6.7661    0.0000 F   0  0  0  0  0  0  0  0  0  0  0  0
   -1.4289    8.0036    0.0000 C   0  0  0  0  0  0  0  0  0  0  0  0
   -1.4289    9.6536    0.0000 C   0  0  0  0  0  0  0  0  0  0  0  0
  1  2  1  0  0  0  0
  2  3  1  0  0  0  0
  3  4  4  0  0  0  0
  4  5  4  0  0  0  0
  5  6  4  0  0  0  0
  6  7  4  0  0  0  0
  7  8  1  0  0  0  0
  8  9  4  0  0  0  0
  9 10  4  0  0  0  0
 10 11  4  0  0  0  0
 11 12  1  0  0  0  0
 12 13  1  0  0  0  0
 13 14  2  0  0  0  0
 13 15  1  0  0  0  0
 15 16  2  0  0  0  0
 16 17  1  0  0  0  0
 17 18  2  0  0  0  0
 17 19  1  0  0  0  0
 16 20  1  0  0  0  0
 20 21  1  0  0  0  0
 21 22  1  0  0  0  0
 15 22  1  0  0  0  0
 11 23  4  0  0  0  0
 23 24  1  0  0  0  0
 23 25  4  0  0  0  0
  8 25  4  0  0  0  0
  7 26  4  0  0  0  0
  3 26  4  0  0  0  0
M  END
> <IC50(uM)>
0.36

> <Outcome>
1.0

> <BindingDB ID>
50319894

> <BindingDB MonomerID>
50173156

> <BindingDB Ligand Name>
4-(3-Fluoro-3'-methoxy-biphenyl-4-ylcarbamoyl)-2,5-dihydro-furan-3-carboxylic acid::CHEMBL197455

> <Curation/DataSource>
ChEMBL

> <Article DOI>
10.1016/j.bmcl.2005.07.053

> <PMID>
16143532

> <Patent Number>
?

> <Authors>
Leban, J; Kralik, M; Mies, J; Gassen, M; Tentschert, K; Baumgartner, R

> <Link to Ligand in BindingDB>
http://www.bindingdb.org/bind/chemsearch/marvin/MolStructure.jsp?monomerid=50173156

> <Link to Ligand-Target Pair in BindingDB>
http://www.bindingdb.org/jsp/dbsearch/PrimarySearch_ki.jsp?energyterm=kJ/mole&tag=r21&monomerid=50173156&enzyme=Dihydroorotate+dehydrogenase&column=ki&startPg=0&Increment=50&submit=Search

> <PubChem CID>
44403229

> <PubChem SID>
104059127

$$$$

  Mrv2115 07222212352D          

 30 33  0  0  0  0            999 V2000
   -2.2673    1.8818    0.0000 C   0  0  0  0  0  0  0  0  0  0  0  0
   -1.4604    1.7103    0.0000 C   0  0  0  0  0  0  0  0  0  0  0  0
   -0.9083    2.3234    0.0000 C   0  0  0  0  0  0  0  0  0  0  0  0
   -0.1014    2.1518    0.0000 C   0  0  0  0  0  0  0  0  0  0  0  0
    0.1536    1.3672    0.0000 C   0  0  0  0  0  0  0  0  0  0  0  0
    0.9606    1.1957    0.0000 F   0  0  0  0  0  0  0  0  0  0  0  0
   -0.3984    0.7541    0.0000 C   0  0  0  0  0  0  0  0  0  0  0  0
   -0.1435   -0.0305    0.0000 N   0  0  0  0  0  0  0  0  0  0  0  0
   -0.6284   -0.6979    0.0000 N   0  0  0  0  0  0  0  0  0  0  0  0
   -0.1435   -1.3654    0.0000 C   0  0  0  0  0  0  0  0  0  0  0  0
    0.6411   -1.1104    0.0000 C   0  0  0  0  0  0  0  0  0  0  0  0
    0.6411   -0.2854    0.0000 C   0  0  0  0  0  0  0  0  0  0  0  0
    1.3556    0.1271    0.0000 C   0  0  0  0  0  0  0  0  0  0  0  0
    2.0701   -0.2854    0.0000 C   0  0  0  0  0  0  0  0  0  0  0  0
    2.0701   -1.1104    0.0000 C   0  0  0  0  0  0  0  0  0  0  0  0
    1.3556   -1.5229    0.0000 C   0  0  0  0  0  0  0  0  0  0  0  0
    1.3556   -2.3479    0.0000 N   0  0  0  0  0  0  0  0  0  0  0  0
    2.0701   -2.7604    0.0000 C   0  0  0  0  0  0  0  0  0  0  0  0
    2.7845   -2.3479    0.0000 O   0  0  0  0  0  0  0  0  0  0  0  0
    2.0701   -3.5854    0.0000 C   0  0  0  0  0  0  0  0  0  0  0  0
    2.7845   -3.9979    0.0000 C   0  0  0  0  0  0  0  0  0  0  0  0
    2.7845   -4.8229    0.0000 C   0  0  0  0  0  0  0  0  0  0  0  0
    3.4990   -5.2354    0.0000 C   0  0  0  0  0  0  0  0  0  0  0  0
    4.2135   -5.6479    0.0000 F   0  0  0  0  0  0  0  0  0  0  0  0
    3.0865   -5.9499    0.0000 F   0  0  0  0  0  0  0  0  0  0  0  0
    3.9115   -4.5210    0.0000 F   0  0  0  0  0  0  0  0  0  0  0  0
    2.0701   -5.2354    0.0000 C   0  0  0  0  0  0  0  0  0  0  0  0
    1.3556   -4.8229    0.0000 C   0  0  0  0  0  0  0  0  0  0  0  0
    1.3556   -3.9979    0.0000 N   0  0  0  0  0  0  0  0  0  0  0  0
   -1.2054    0.9256    0.0000 C   0  0  0  0  0  0  0  0  0  0  0  0
  1  2  1  0  0  0  0
  2  3  4  0  0  0  0
  3  4  4  0  0  0  0
  4  5  4  0  0  0  0
  5  6  1  0  0  0  0
  5  7  4  0  0  0  0
  7  8  1  0  0  0  0
  8  9  4  0  0  0  0
  9 10  4  0  0  0  0
 10 11  4  0  0  0  0
 11 12  4  0  0  0  0
  8 12  4  0  0  0  0
 12 13  1  0  0  0  0
 13 14  1  0  0  0  0
 14 15  1  0  0  0  0
 15 16  1  0  0  0  0
 11 16  1  0  0  0  0
 16 17  1  0  0  0  0
 17 18  1  0  0  0  0
 18 19  2  0  0  0  0
 18 20  1  0  0  0  0
 20 21  4  0  0  0  0
 21 22  4  0  0  0  0
 22 23  1  0  0  0  0
 23 24  1  0  0  0  0
 23 25  1  0  0  0  0
 23 26  1  0  0  0  0
 22 27  4  0  0  0  0
 27 28  4  0  0  0  0
 28 29  4  0  0  0  0
 20 29  4  0  0  0  0
  7 30  4  0  0  0  0
  2 30  4  0  0  0  0
M  END
> <IC50(uM)>
0.0795

> <Outcome>
1.0

> <BindingDB ID>
51334954; 993118

> <BindingDB MonomerID>
477620

> <BindingDB Ligand Name>
N-[(4R)-1-(2-fluoro-5-methylphenyl)-4,5,6,7-tetrahydro-1H-indazol-4-yl]-4-(trifluoromethyl)pyridine-2-carboxamide::US10889564, Example 50

> <Curation/DataSource>
ChEMBL; US Patent

> <Article DOI>
10.1021/acs.jmedchem.9b01658; ?

> <PMID>
32212728; ?

> <Patent Number>
?; US10889564

> <Authors>
Popova, G; Ladds, MJGW; Johansson, L; Saleh, A; Larsson, J; Sandberg, L; Sahlberg, SH; Qian, W; Gullberg, H; Garg, N; Gustavsson, AL; Haraldsson, M; Lane, D; Yngve, U; Lain, S; Lain, S; Drummond, C; Leeuwen, IV; Haraldsson, M; Johansson, L; Sandberg, L; Yngve, U

> <Link to Ligand in BindingDB>
http://www.bindingdb.org/bind/chemsearch/marvin/MolStructure.jsp?monomerid=477620

> <Link to Ligand-Target Pair in BindingDB>
http://www.bindingdb.org/jsp/dbsearch/PrimarySearch_ki.jsp?energyterm=kJ/mole&tag=r21&monomerid=477620&enzyme=Dihydroorotate+dehydrogenase&column=ki&startPg=0&Increment=50&submit=Search

> <PubChem CID>
129127275

> <PubChem SID>
442137237

$$$$

  Mrv2115 07222212352D          

 22 23  0  0  0  0            999 V2000
    3.1599   -6.9020    0.0000 C   0  0  0  0  0  0  0  0  0  0  0  0
    3.5724   -6.1875    0.0000 C   0  0  0  0  0  0  0  0  0  0  0  0
    4.3974   -6.1875    0.0000 O   0  0  0  0  0  0  0  0  0  0  0  0
    4.8099   -5.4730    0.0000 C   0  0  0  0  0  0  0  0  0  0  0  0
    4.3974   -4.7586    0.0000 O   0  0  0  0  0  0  0  0  0  0  0  0
    5.6349   -5.4730    0.0000 C   0  0  0  0  0  0  0  0  0  0  0  0
    6.0474   -6.1875    0.0000 C   0  0  0  0  0  0  0  0  0  0  0  0
    6.4599   -6.9020    0.0000 N   0  0  0  0  0  0  0  0  0  0  0  0
    6.0474   -4.7586    0.0000 C   0  0  0  0  0  0  0  0  0  0  0  0
    6.8724   -4.7586    0.0000 N   0  0  0  0  0  0  0  0  0  0  0  0
    7.2849   -4.0441    0.0000 C   0  0  0  0  0  0  0  0  0  0  0  0
    6.8724   -3.3296    0.0000 C   0  0  0  0  0  0  0  0  0  0  0  0
    7.2849   -2.6151    0.0000 C   0  0  0  0  0  0  0  0  0  0  0  0
    8.1099   -2.6151    0.0000 C   0  0  0  0  0  0  0  0  0  0  0  0
    8.5224   -3.3296    0.0000 C   0  0  0  0  0  0  0  0  0  0  0  0
    9.3474   -3.3296    0.0000 C   0  0  0  0  0  0  0  0  0  0  0  0
    9.7599   -2.6151    0.0000 C   0  0  0  0  0  0  0  0  0  0  0  0
   10.5849   -2.6151    0.0000 C   0  0  0  0  0  0  0  0  0  0  0  0
   10.9974   -3.3296    0.0000 C   0  0  0  0  0  0  0  0  0  0  0  0
   10.5849   -4.0441    0.0000 C   0  0  0  0  0  0  0  0  0  0  0  0
    9.7599   -4.0441    0.0000 C   0  0  0  0  0  0  0  0  0  0  0  0
    8.1099   -4.0441    0.0000 C   0  0  0  0  0  0  0  0  0  0  0  0
  1  2  1  0  0  0  0
  2  3  1  0  0  0  0
  3  4  1  0  0  0  0
  4  5  2  0  0  0  0
  4  6  1  0  0  0  0
  6  7  1  0  0  0  0
  7  8  3  0  0  0  0
  9  6  1  4  0  0  0
  9 10  2  0  0  0  0
 10 11  1  0  0  0  0
 11 12  4  0  0  0  0
 12 13  4  0  0  0  0
 13 14  4  0  0  0  0
 14 15  4  0  0  0  0
 15 16  1  0  0  0  0
 16 17  4  0  0  0  0
 17 18  4  0  0  0  0
 18 19  4  0  0  0  0
 19 20  4  0  0  0  0
 20 21  4  0  0  0  0
 16 21  4  0  0  0  0
 15 22  4  0  0  0  0
 11 22  4  0  0  0  0
M  END
> <IC50(uM)>
219.8

> <Outcome>
0.0

> <BindingDB ID>
26836

> <BindingDB MonomerID>
14708

> <BindingDB Ligand Name>
Ethyl 3-(biphenyl-3-ylamino)-2-cyanoacrylate::biphenyl compound 13::ethyl (2Z)-2-cyano-3-[(3-phenylphenyl)amino]prop-2-enoate

> <Curation/DataSource>
Curated from the literature by BindingDB

> <Article DOI>
10.1021/jm060687j

> <PMID>
17228860

> <Patent Number>
?

> <Authors>
Heikkila, T; Ramsey, C; Davies, M; Galtier, C; Stead, AM; Johnson, AP; Fishwick, CW; Boa, AN; McConkey, GA

> <Link to Ligand in BindingDB>
http://www.bindingdb.org/bind/chemsearch/marvin/MolStructure.jsp?monomerid=14708

> <Link to Ligand-Target Pair in BindingDB>
http://www.bindingdb.org/jsp/dbsearch/PrimarySearch_ki.jsp?energyterm=kJ/mole&tag=r21&monomerid=14708&enzyme=Dihydroorotate+dehydrogenase&column=ki&startPg=0&Increment=50&submit=Search

> <PubChem CID>
91895906

> <PubChem SID>
46515038

$$$$

  Mrv2115 07222212352D          

 22 23  0  0  0  0            999 V2000
    0.0000   -4.9500    0.0000 C   0  0  0  0  0  0  0  0  0  0  0  0
    0.7145   -5.3625    0.0000 C   0  0  0  0  0  0  0  0  0  0  0  0
    0.7145   -6.1875    0.0000 O   0  0  0  0  0  0  0  0  0  0  0  0
    1.4289   -4.9500    0.0000 C   0  0  0  0  0  0  0  0  0  0  0  0
    1.4289   -4.1250    0.0000 C   0  0  0  0  0  0  0  0  0  0  0  0
    1.4289   -3.3000    0.0000 N   0  0  0  0  0  0  0  0  0  0  0  0
    2.1434   -5.3625    0.0000 C   0  0  0  0  0  0  0  0  0  0  0  0
    2.1434   -6.1875    0.0000 O   0  0  0  0  0  0  0  0  0  0  0  0
    2.8579   -4.9500    0.0000 N   0  0  0  0  0  0  0  0  0  0  0  0
    3.5724   -5.3625    0.0000 C   0  0  0  0  0  0  0  0  0  0  0  0
    4.2868   -4.9500    0.0000 C   0  0  0  0  0  0  0  0  0  0  0  0
    5.0013   -5.3625    0.0000 C   0  0  0  0  0  0  0  0  0  0  0  0
    5.0013   -6.1875    0.0000 C   0  0  0  0  0  0  0  0  0  0  0  0
    5.7158   -6.6000    0.0000 C   0  0  0  0  0  0  0  0  0  0  0  0
    6.4302   -6.1875    0.0000 C   0  0  0  0  0  0  0  0  0  0  0  0
    7.1447   -6.6000    0.0000 C   0  0  0  0  0  0  0  0  0  0  0  0
    7.1447   -7.4250    0.0000 C   0  0  0  0  0  0  0  0  0  0  0  0
    6.4302   -7.8375    0.0000 C   0  0  0  0  0  0  0  0  0  0  0  0
    5.7158   -7.4250    0.0000 C   0  0  0  0  0  0  0  0  0  0  0  0
    5.0013   -7.8375    0.0000 Cl  0  0  0  0  0  0  0  0  0  0  0  0
    4.2868   -6.6000    0.0000 C   0  0  0  0  0  0  0  0  0  0  0  0
    3.5724   -6.1875    0.0000 C   0  0  0  0  0  0  0  0  0  0  0  0
  1  2  1  0  0  0  0
  2  3  2  0  0  0  0
  2  4  1  0  0  0  0
  4  5  1  0  0  0  0
  5  6  3  0  0  0  0
  4  7  1  0  0  0  0
  7  8  2  0  0  0  0
  7  9  1  0  0  0  0
  9 10  1  0  0  0  0
 10 11  4  0  0  0  0
 11 12  4  0  0  0  0
 12 13  4  0  0  0  0
 13 14  1  0  0  0  0
 14 15  4  0  0  0  0
 15 16  4  0  0  0  0
 16 17  4  0  0  0  0
 17 18  4  0  0  0  0
 18 19  4  0  0  0  0
 14 19  4  0  0  0  0
 19 20  1  0  0  0  0
 13 21  4  0  0  0  0
 21 22  4  0  0  0  0
 10 22  4  0  0  0  0
M  END
> <IC50(uM)>
0.13

> <Outcome>
1.0

> <BindingDB ID>
52797

> <BindingDB MonomerID>
29037

> <BindingDB Ligand Name>
cyanohydroxybutenamide, 27

> <Curation/DataSource>
Curated from the literature by BindingDB

> <Article DOI>
10.1021/jm800963t

> <PMID>
19351152

> <Patent Number>
?

> <Authors>
Davies, M; Heikkil&auml;, T; McConkey, GA; Fishwick, CW; Parsons, MR; Johnson, AP

> <Link to Ligand in BindingDB>
http://www.bindingdb.org/bind/chemsearch/marvin/MolStructure.jsp?monomerid=29037

> <Link to Ligand-Target Pair in BindingDB>
http://www.bindingdb.org/jsp/dbsearch/PrimarySearch_ki.jsp?energyterm=kJ/mole&tag=r21&monomerid=29037&enzyme=Dihydroorotate+dehydrogenase&column=ki&startPg=0&Increment=50&submit=Search

> <PubChem CID>
91896063

> <PubChem SID>
81054466

$$$$

  Mrv2115 07222212352D          

 34 37  0  0  0  0            999 V2000
   -2.8579   -1.6500    0.0000 C   0  0  0  0  0  0  0  0  0  0  0  0
   -2.1434   -1.2375    0.0000 O   0  0  0  0  0  0  0  0  0  0  0  0
   -1.4289   -1.6500    0.0000 C   0  0  0  0  0  0  0  0  0  0  0  0
   -0.7145   -1.2375    0.0000 C   0  0  0  0  0  0  0  0  0  0  0  0
    0.0000   -1.6500    0.0000 C   0  0  0  0  0  0  0  0  0  0  0  0
    0.7145   -1.2375    0.0000 N   0  0  0  0  0  0  0  0  0  0  0  0
    0.7145   -0.4125    0.0000 C   0  0  0  0  0  0  0  0  0  0  0  0
    1.4289    0.0000    0.0000 C   0  0  0  0  0  0  0  0  0  0  0  0
    1.4289    0.8250    0.0000 C   0  0  0  0  0  0  0  0  0  0  0  0
    2.1434    1.2375    0.0000 C   0  0  0  0  0  0  0  0  0  0  0  0
    0.7145    1.2375    0.0000 C   0  0  0  0  0  0  0  0  0  0  0  0
    2.1434   -0.4125    0.0000 C   0  0  0  0  0  0  0  0  0  0  0  0
    2.8579    0.0000    0.0000 C   0  0  0  0  0  0  0  0  0  0  0  0
    3.5724   -0.4125    0.0000 C   0  0  0  0  0  0  0  0  0  0  0  0
    4.2868   -0.0000    0.0000 C   0  0  0  0  0  0  0  0  0  0  0  0
    4.3731    0.8205    0.0000 C   0  0  0  0  0  0  0  0  0  0  0  0
    5.1800    0.9920    0.0000 N   0  0  0  0  0  0  0  0  0  0  0  0
    5.5156    1.7457    0.0000 C   0  0  0  0  0  0  0  0  0  0  0  0
    5.5925    0.2775    0.0000 C   0  0  0  0  0  0  0  0  0  0  0  0
    6.4130    0.1913    0.0000 C   0  0  0  0  0  0  0  0  0  0  0  0
    7.2335    0.1051    0.0000 C   0  0  0  0  0  0  0  0  0  0  0  0
    6.3268   -0.6292    0.0000 C   0  0  0  0  0  0  0  0  0  0  0  0
    6.4993    1.0118    0.0000 O   0  0  0  0  0  0  0  0  0  0  0  0
    5.0405   -0.3356    0.0000 N   0  0  0  0  0  0  0  0  0  0  0  0
    3.5724   -1.2375    0.0000 C   0  0  0  0  0  0  0  0  0  0  0  0
    4.2868   -1.6500    0.0000 F   0  0  0  0  0  0  0  0  0  0  0  0
    2.8579   -1.6500    0.0000 C   0  0  0  0  0  0  0  0  0  0  0  0
    2.1434   -1.2375    0.0000 C   0  0  0  0  0  0  0  0  0  0  0  0
    1.4289   -1.6500    0.0000 C   0  0  0  0  0  0  0  0  0  0  0  0
    1.4289   -2.4750    0.0000 O   0  0  0  0  0  0  0  0  0  0  0  0
    0.0000   -2.4750    0.0000 C   0  0  0  0  0  0  0  0  0  0  0  0
    0.7145   -2.8875    0.0000 C   0  0  0  0  0  0  0  0  0  0  0  0
   -0.7145   -2.8875    0.0000 C   0  0  0  0  0  0  0  0  0  0  0  0
   -1.4289   -2.4750    0.0000 N   0  0  0  0  0  0  0  0  0  0  0  0
  1  2  1  0  0  0  0
  2  3  1  0  0  0  0
  3  4  4  0  0  0  0
  4  5  4  0  0  0  0
  5  6  1  0  0  0  0
  6  7  4  0  0  0  0
  7  8  4  0  0  0  0
  8  9  1  0  0  0  0
  9 10  1  0  0  0  0
  9 11  1  0  0  0  0
  8 12  4  0  0  0  0
 12 13  4  0  0  0  0
 13 14  4  0  0  0  0
 14 15  1  0  0  0  0
 15 16  4  0  0  0  0
 16 17  4  0  0  0  0
 17 18  1  0  0  0  0
 17 19  4  0  0  0  0
 19 20  1  0  0  0  0
 20 21  1  0  0  0  0
 20 22  1  0  0  0  0
 20 23  1  0  0  0  0
 19 24  4  0  0  0  0
 15 24  4  0  0  0  0
 14 25  4  0  0  0  0
 25 26  1  0  0  0  0
 25 27  4  0  0  0  0
 27 28  4  0  0  0  0
 12 28  4  0  0  0  0
 28 29  4  0  0  0  0
  6 29  4  0  0  0  0
 29 30  2  0  0  0  0
  5 31  4  0  0  0  0
 31 32  1  0  0  0  0
 31 33  4  0  0  0  0
 33 34  4  0  0  0  0
  3 34  4  0  0  0  0
M  END
> <IC50(uM)>
0.0012

> <Outcome>
1.0

> <BindingDB ID>
1121387

> <BindingDB MonomerID>
530453

> <BindingDB Ligand Name>
7-Fluoro-6-(2-(2-hydroxypropan-2-yl)-1-methyl-1H-imidazol-4-yl)-4-isopropyl-2-(2-methoxy-5-methylpyridin-4-yl)isoquinolin-1(2H)-one.::WO2022070068, Example 25

> <Curation/DataSource>
Curated from the literature by BindingDB

> <Article DOI>
?

> <PMID>
WO2022070068

> <Patent Number>
?

> <Authors>
Lindsey, D; Scott, K; Zhuming, Z

> <Link to Ligand in BindingDB>
http://www.bindingdb.org/bind/chemsearch/marvin/MolStructure.jsp?monomerid=530453

> <Link to Ligand-Target Pair in BindingDB>
http://www.bindingdb.org/jsp/dbsearch/PrimarySearch_ki.jsp?energyterm=kJ/mole&tag=r21&monomerid=530453&enzyme=Dihydroorotate+dehydrogenase&column=ki&startPg=0&Increment=50&submit=Search

> <PubChem CID>
?

> <PubChem SID>
?

$$$$

  Mrv2115 07222212352D          

 25 28  0  0  0  0            999 V2000
    5.1156   -3.2652    0.0000 C   0  0  0  0  0  0  0  0  0  0  0  0
    4.4011   -3.6777    0.0000 C   0  0  0  0  0  0  0  0  0  0  0  0
    4.4011   -4.5027    0.0000 C   0  0  0  0  0  0  0  0  0  0  0  0
    3.6866   -4.9152    0.0000 C   0  0  0  0  0  0  0  0  0  0  0  0
    3.6866   -5.7402    0.0000 N   0  0  0  0  0  0  0  0  0  0  0  0
    4.4011   -6.1527    0.0000 C   0  0  0  0  0  0  0  0  0  0  0  0
    5.1548   -5.8172    0.0000 C   0  0  0  0  0  0  0  0  0  0  0  0
    5.7068   -6.4303    0.0000 C   0  0  0  0  0  0  0  0  0  0  0  0
    6.5318   -6.4303    0.0000 C   0  0  0  0  0  0  0  0  0  0  0  0
    6.9443   -7.1447    0.0000 C   0  0  0  0  0  0  0  0  0  0  0  0
    6.5318   -7.8592    0.0000 C   0  0  0  0  0  0  0  0  0  0  0  0
    5.7068   -7.8592    0.0000 C   0  0  0  0  0  0  0  0  0  0  0  0
    5.2943   -8.5737    0.0000 F   0  0  0  0  0  0  0  0  0  0  0  0
    5.2943   -7.1447    0.0000 C   0  0  0  0  0  0  0  0  0  0  0  0
    4.4874   -6.9732    0.0000 C   0  0  0  0  0  0  0  0  0  0  0  0
    2.9722   -4.5027    0.0000 N   0  0  0  0  0  0  0  0  0  0  0  0
    2.1876   -4.7577    0.0000 N   0  0  0  0  0  0  0  0  0  0  0  0
    1.7026   -4.0902    0.0000 C   0  0  0  0  0  0  0  0  0  0  0  0
    0.8776   -4.0902    0.0000 C   0  0  0  0  0  0  0  0  0  0  0  0
    0.0526   -4.0902    0.0000 C   0  0  0  0  0  0  0  0  0  0  0  0
    0.8776   -3.2652    0.0000 F   0  0  0  0  0  0  0  0  0  0  0  0
    0.8776   -4.9152    0.0000 F   0  0  0  0  0  0  0  0  0  0  0  0
    2.1876   -3.4228    0.0000 N   0  0  0  0  0  0  0  0  0  0  0  0
    2.9722   -3.6777    0.0000 C   0  0  0  0  0  0  0  0  0  0  0  0
    3.6866   -3.2652    0.0000 N   0  0  0  0  0  0  0  0  0  0  0  0
  1  2  1  0  0  0  0
  2  3  4  0  0  0  0
  3  4  4  0  0  0  0
  4  5  1  0  0  0  0
  5  6  1  0  0  0  0
  6  7  1  0  0  0  0
  7  8  1  0  0  0  0
  8  9  4  0  0  0  0
  9 10  4  0  0  0  0
 10 11  4  0  0  0  0
 11 12  4  0  0  0  0
 12 13  1  0  0  0  0
 12 14  4  0  0  0  0
  8 14  4  0  0  0  0
 14 15  1  0  0  0  0
  6 15  1  0  0  0  0
  4 16  4  0  0  0  0
 16 17  4  0  0  0  0
 17 18  4  0  0  0  0
 18 19  1  0  0  0  0
 19 20  1  0  0  0  0
 19 21  1  0  0  0  0
 19 22  1  0  0  0  0
 18 23  4  0  0  0  0
 23 24  4  0  0  0  0
 16 24  4  0  0  0  0
 24 25  4  0  0  0  0
  2 25  4  0  0  0  0
M  END
> <IC50(uM)>
100.0

> <Outcome>
0.0

> <BindingDB ID>
51373012

> <BindingDB MonomerID>
50555379

> <BindingDB Ligand Name>
CHEMBL4740342

> <Curation/DataSource>
ChEMBL

> <Article DOI>
?

> <PMID>
27127993

> <Patent Number>
?

> <Authors>
Kokkonda, S; Deng, X; White, KL; Coteron, JM; Marco, M; de Las Heras, L; White, J; El Mazouni, F; Tomchick, DR; Manjalanagara, K; Rudra, KR; Chen, G; Morizzi, J; Ryan, E; Kaminsky, W; Leroy, D; Mart??nez-Mart??nez, MS; Jimenez-Diaz, MB; Bazaga, SF; Angulo-Barturen, I; Waterson, D; Burrows, JN; Matthews, D; Charman, SA; Phillips, MA; Rathod, PK

> <Link to Ligand in BindingDB>
http://www.bindingdb.org/bind/chemsearch/marvin/MolStructure.jsp?monomerid=50555379

> <Link to Ligand-Target Pair in BindingDB>
http://www.bindingdb.org/jsp/dbsearch/PrimarySearch_ki.jsp?energyterm=kJ/mole&tag=r21&monomerid=50555379&enzyme=Dihydroorotate+dehydrogenase&column=ki&startPg=0&Increment=50&submit=Search

> <PubChem CID>
162644968

> <PubChem SID>
461694147

$$$$

  Mrv2115 07222212352D          

 22 23  0  0  0  0            999 V2000
   -0.1067   -0.0616    0.0000 C   0  0  0  0  0  0  0  0  0  0  0  0
    0.6078   -0.4741    0.0000 C   0  0  0  0  0  0  0  0  0  0  0  0
    1.3222   -0.0616    0.0000 O   0  0  0  0  0  0  0  0  0  0  0  0
    2.0367   -0.4741    0.0000 C   0  0  0  0  0  0  0  0  0  0  0  0
    2.7512   -0.0616    0.0000 O   0  0  0  0  0  0  0  0  0  0  0  0
    2.0367   -1.2991    0.0000 C   0  0  0  0  0  0  0  0  0  0  0  0
    1.3693   -1.7840    0.0000 C   0  0  0  0  0  0  0  0  0  0  0  0
    0.5846   -1.5291    0.0000 O   0  0  0  0  0  0  0  0  0  0  0  0
    1.6242   -2.5687    0.0000 C   0  0  0  0  0  0  0  0  0  0  0  0
    2.4492   -2.5687    0.0000 O   0  0  0  0  0  0  0  0  0  0  0  0
    2.7041   -1.7840    0.0000 C   0  0  0  0  0  0  0  0  0  0  0  0
    3.4888   -1.5291    0.0000 N   0  0  0  0  0  0  0  0  0  0  0  0
    4.1019   -2.0811    0.0000 C   0  0  0  0  0  0  0  0  0  0  0  0
    4.8865   -1.8262    0.0000 C   0  0  0  0  0  0  0  0  0  0  0  0
    5.4996   -2.3782    0.0000 C   0  0  0  0  0  0  0  0  0  0  0  0
    5.3281   -3.1852    0.0000 C   0  0  0  0  0  0  0  0  0  0  0  0
    5.9411   -3.7372    0.0000 C   0  0  0  0  0  0  0  0  0  0  0  0
    6.5542   -4.2893    0.0000 F   0  0  0  0  0  0  0  0  0  0  0  0
    5.3891   -4.3503    0.0000 F   0  0  0  0  0  0  0  0  0  0  0  0
    6.4932   -3.1241    0.0000 F   0  0  0  0  0  0  0  0  0  0  0  0
    4.5434   -3.4401    0.0000 C   0  0  0  0  0  0  0  0  0  0  0  0
    3.9303   -2.8881    0.0000 C   0  0  0  0  0  0  0  0  0  0  0  0
  1  2  1  0  0  0  0
  2  3  1  0  0  0  0
  3  4  1  0  0  0  0
  4  5  2  0  0  0  0
  4  6  1  0  0  0  0
  6  7  4  0  0  0  0
  7  8  1  0  0  0  0
  7  9  4  0  0  0  0
  9 10  4  0  0  0  0
 10 11  4  0  0  0  0
  6 11  4  0  0  0  0
 11 12  1  0  0  0  0
 12 13  1  0  0  0  0
 13 14  4  0  0  0  0
 14 15  4  0  0  0  0
 15 16  4  0  0  0  0
 16 17  1  0  0  0  0
 17 18  1  0  0  0  0
 17 19  1  0  0  0  0
 17 20  1  0  0  0  0
 16 21  4  0  0  0  0
 21 22  4  0  0  0  0
 13 22  4  0  0  0  0
M  END
> <IC50(uM)>
50.0

> <Outcome>
0.0

> <BindingDB ID>
51079139

> <BindingDB MonomerID>
50441247

> <BindingDB Ligand Name>
CHEMBL2431502

> <Curation/DataSource>
ChEMBL

> <Article DOI>
10.1021/jm400938g

> <PMID>
24073986

> <Patent Number>
?

> <Authors>
Xu, M; Zhu, J; Diao, Y; Zhou, H; Ren, X; Sun, D; Huang, J; Han, D; Zhao, Z; Zhu, L; Xu, Y; Li, H

> <Link to Ligand in BindingDB>
http://www.bindingdb.org/bind/chemsearch/marvin/MolStructure.jsp?monomerid=50441247

> <Link to Ligand-Target Pair in BindingDB>
http://www.bindingdb.org/jsp/dbsearch/PrimarySearch_ki.jsp?energyterm=kJ/mole&tag=r21&monomerid=50441247&enzyme=Dihydroorotate+dehydrogenase&column=ki&startPg=0&Increment=50&submit=Search

> <PubChem CID>
91898808

> <PubChem SID>
175453564

$$$$

  Mrv2115 07222212352D          

 18 20  0  0  0  0            999 V2000
    4.0668    2.3479    0.0000 C   0  0  0  0  0  0  0  0  0  0  0  0
    3.3523    1.9354    0.0000 C   0  0  0  0  0  0  0  0  0  0  0  0
    3.3523    1.1104    0.0000 C   0  0  0  0  0  0  0  0  0  0  0  0
    2.6378    0.6979    0.0000 C   0  0  0  0  0  0  0  0  0  0  0  0
    2.6378   -0.1271    0.0000 N   0  0  0  0  0  0  0  0  0  0  0  0
    1.9233   -0.5396    0.0000 C   0  0  0  0  0  0  0  0  0  0  0  0
    1.9233   -1.3646    0.0000 C   0  0  0  0  0  0  0  0  0  0  0  0
    1.2089   -1.7771    0.0000 C   0  0  0  0  0  0  0  0  0  0  0  0
    0.4944   -1.3646    0.0000 C   0  0  0  0  0  0  0  0  0  0  0  0
   -0.2201   -1.7771    0.0000 Cl  0  0  0  0  0  0  0  0  0  0  0  0
    0.4944   -0.5396    0.0000 C   0  0  0  0  0  0  0  0  0  0  0  0
    1.2089   -0.1271    0.0000 C   0  0  0  0  0  0  0  0  0  0  0  0
    1.9233    1.1104    0.0000 N   0  0  0  0  0  0  0  0  0  0  0  0
    1.1387    0.8555    0.0000 N   0  0  0  0  0  0  0  0  0  0  0  0
    0.6538    1.5229    0.0000 C   0  0  0  0  0  0  0  0  0  0  0  0
    1.1387    2.1904    0.0000 N   0  0  0  0  0  0  0  0  0  0  0  0
    1.9233    1.9354    0.0000 C   0  0  0  0  0  0  0  0  0  0  0  0
    2.6378    2.3479    0.0000 N   0  0  0  0  0  0  0  0  0  0  0  0
  1  2  1  0  0  0  0
  2  3  4  0  0  0  0
  3  4  4  0  0  0  0
  4  5  1  0  0  0  0
  5  6  1  0  0  0  0
  6  7  4  0  0  0  0
  7  8  4  0  0  0  0
  8  9  4  0  0  0  0
  9 10  1  0  0  0  0
  9 11  4  0  0  0  0
 11 12  4  0  0  0  0
  6 12  4  0  0  0  0
  4 13  4  0  0  0  0
 13 14  4  0  0  0  0
 14 15  4  0  0  0  0
 15 16  4  0  0  0  0
 16 17  4  0  0  0  0
 13 17  4  0  0  0  0
 17 18  4  0  0  0  0
  2 18  4  0  0  0  0
M  END
> <IC50(uM)>
100.0

> <Outcome>
0.0

> <BindingDB ID>
52446

> <BindingDB MonomerID>
28814

> <BindingDB Ligand Name>
N-(4-chlorophenyl)-5-methyl-[1,2,4]triazolo[1,5-a]pyrimidin-7-amine::cid_741601::triazolopyrimidine-based compound, DSM89

> <Curation/DataSource>
Curated from the literature by BindingDB

> <Article DOI>
10.1021/jm801343r

> <PMID>
19296651

> <Patent Number>
?

> <Authors>
Gujjar, R; Marwaha, A; El Mazouni, F; White, J; White, KL; Creason, S; Shackleford, DM; Baldwin, J; Charman, WN; Buckner, FS; Charman, S; Rathod, PK; Phillips, MA

> <Link to Ligand in BindingDB>
http://www.bindingdb.org/bind/chemsearch/marvin/MolStructure.jsp?monomerid=28814

> <Link to Ligand-Target Pair in BindingDB>
http://www.bindingdb.org/jsp/dbsearch/PrimarySearch_ki.jsp?energyterm=kJ/mole&tag=r21&monomerid=28814&enzyme=Dihydroorotate+Dehydrogenase+%28DHODH%29&column=ki&startPg=0&Increment=50&submit=Search

> <PubChem CID>
741601

> <PubChem SID>
58098002

$$$$

  Mrv2115 07222212352D          

 34 37  0  0  0  0            999 V2000
   -0.6284    2.1599    0.0000 C   0  0  0  0  0  0  0  0  0  0  0  0
   -1.4534    2.1599    0.0000 C   0  0  0  0  0  0  0  0  0  0  0  0
   -1.8659    1.4455    0.0000 C   0  0  0  0  0  0  0  0  0  0  0  0
   -2.6909    1.4455    0.0000 C   0  0  0  0  0  0  0  0  0  0  0  0
   -3.1034    2.1599    0.0000 C   0  0  0  0  0  0  0  0  0  0  0  0
   -3.1034    0.7310    0.0000 O   0  0  0  0  0  0  0  0  0  0  0  0
   -2.6909    0.0165    0.0000 C   0  0  0  0  0  0  0  0  0  0  0  0
   -1.8659    0.0165    0.0000 C   0  0  0  0  0  0  0  0  0  0  0  0
   -1.4534   -0.6979    0.0000 C   0  0  0  0  0  0  0  0  0  0  0  0
   -0.6284   -0.6979    0.0000 N   0  0  0  0  0  0  0  0  0  0  0  0
   -0.1435   -1.3654    0.0000 N   0  0  0  0  0  0  0  0  0  0  0  0
    0.6411   -1.1104    0.0000 C   0  0  0  0  0  0  0  0  0  0  0  0
    0.6411   -0.2854    0.0000 N   0  0  0  0  0  0  0  0  0  0  0  0
   -0.1435   -0.0305    0.0000 C   0  0  0  0  0  0  0  0  0  0  0  0
   -0.3984    0.7541    0.0000 O   0  0  0  0  0  0  0  0  0  0  0  0
    1.3556    0.1271    0.0000 C   0  0  0  0  0  0  0  0  0  0  0  0
    2.0701   -0.2854    0.0000 C   0  0  0  0  0  0  0  0  0  0  0  0
    2.0701   -1.1104    0.0000 C   0  0  0  0  0  0  0  0  0  0  0  0
    1.3556   -1.5229    0.0000 C   0  0  0  0  0  0  0  0  0  0  0  0
   -1.8659   -1.4124    0.0000 C   0  0  0  0  0  0  0  0  0  0  0  0
   -1.4534   -2.1269    0.0000 F   0  0  0  0  0  0  0  0  0  0  0  0
   -2.6909   -1.4124    0.0000 C   0  0  0  0  0  0  0  0  0  0  0  0
   -3.1034   -0.6979    0.0000 C   0  0  0  0  0  0  0  0  0  0  0  0
   -3.9284   -0.6979    0.0000 C   0  0  0  0  0  0  0  0  0  0  0  0
   -4.3409    0.0165    0.0000 O   0  0  0  0  0  0  0  0  0  0  0  0
   -4.3409   -1.4124    0.0000 N   0  0  0  0  0  0  0  0  0  0  0  0
   -3.9284   -2.1269    0.0000 C   0  0  0  0  0  0  0  0  0  0  0  0
   -3.1034   -2.1269    0.0000 C   0  0  0  0  0  0  0  0  0  0  0  0
   -2.6909   -2.8414    0.0000 C   0  0  0  0  0  0  0  0  0  0  0  0
   -3.1034   -3.5558    0.0000 C   0  0  0  0  0  0  0  0  0  0  0  0
   -2.6909   -4.2703    0.0000 N   0  0  0  0  0  0  0  0  0  0  0  0
   -3.9284   -3.5558    0.0000 C   0  0  0  0  0  0  0  0  0  0  0  0
   -4.3409   -2.8414    0.0000 C   0  0  0  0  0  0  0  0  0  0  0  0
   -5.1659   -2.8414    0.0000 C   0  0  0  0  0  0  0  0  0  0  0  0
  1  2  1  0  0  0  0
  2  3  1  0  0  0  0
  3  4  1  0  0  0  0
  4  5  1  0  0  0  0
  4  6  1  0  0  0  0
  6  7  1  0  0  0  0
  7  8  4  0  0  0  0
  8  9  4  0  0  0  0
  9 10  1  0  0  0  0
 10 11  4  0  0  0  0
 11 12  4  0  0  0  0
 12 13  4  0  0  0  0
 13 14  4  0  0  0  0
 10 14  4  0  0  0  0
 14 15  2  0  0  0  0
 13 16  1  0  0  0  0
 16 17  1  0  0  0  0
 17 18  1  0  0  0  0
 18 19  1  0  0  0  0
 12 19  1  0  0  0  0
  9 20  4  0  0  0  0
 20 21  1  0  0  0  0
 20 22  4  0  0  0  0
 22 23  4  0  0  0  0
  7 23  4  0  0  0  0
 23 24  1  0  0  0  0
 24 25  2  0  0  0  0
 24 26  1  0  0  0  0
 26 27  1  0  0  0  0
 27 28  4  0  0  0  0
 28 29  4  0  0  0  0
 29 30  4  0  0  0  0
 30 31  1  0  0  0  0
 30 32  4  0  0  0  0
 32 33  4  0  0  0  0
 27 33  4  0  0  0  0
 33 34  1  0  0  0  0
M  END
> <IC50(uM)>
0.00175

> <Outcome>
1.0

> <BindingDB ID>
1020404; 1020405

> <BindingDB MonomerID>
490359

> <BindingDB Ligand Name>
N-(4-amino-2-methylphenyl)-5-fluoro-4-(3-oxo-5,6,7,8-tetrahydro[1,2,4]triazolo[4,3-a]pyridin-2(3H)-yl)-2-[(2S)-pentan-2-yloxy]benzamide::US10968216, Example 27

> <Curation/DataSource>
US Patent

> <Article DOI>
?

> <PMID>
?

> <Patent Number>
US10968216

> <Authors>
Gradl, SN; Nguyen, D; Eis, K; Gunther, J; Stellfeld, T; Janzer, A; Christian, S; Mueller, T; Sheikh, SE; Zhou, HJ; Zhao, C; Sykes, DB; Ferrara, SJ; Liu, K; Herbert, SA; Merz, C; Niehues, M; Nising, CF; Schafer, M; Zimmermann, K; Knablein, J; Thede, K; Faupel, T

> <Link to Ligand in BindingDB>
http://www.bindingdb.org/bind/chemsearch/marvin/MolStructure.jsp?monomerid=490359

> <Link to Ligand-Target Pair in BindingDB>
http://www.bindingdb.org/jsp/dbsearch/PrimarySearch_ki.jsp?energyterm=kJ/mole&tag=r21&monomerid=490359&enzyme=Dihydroorotate+dehydrogenase&column=ki&startPg=0&Increment=50&submit=Search

> <PubChem CID>
142335903

> <PubChem SID>
447117086

$$$$

  Mrv2115 07222212352D          

 25 28  0  0  0  0            999 V2000
    4.0668    2.3479    0.0000 C   0  0  0  0  0  0  0  0  0  0  0  0
    3.3523    1.9354    0.0000 C   0  0  0  0  0  0  0  0  0  0  0  0
    3.3523    1.1104    0.0000 C   0  0  0  0  0  0  0  0  0  0  0  0
    2.6378    0.6979    0.0000 C   0  0  0  0  0  0  0  0  0  0  0  0
    2.6378   -0.1271    0.0000 C   0  0  0  0  0  0  0  0  0  0  0  0
    1.9233   -0.5396    0.0000 O   0  0  0  0  0  0  0  0  0  0  0  0
    3.3523   -0.5396    0.0000 O   0  0  0  0  0  0  0  0  0  0  0  0
    1.9233    1.1104    0.0000 C   0  0  0  0  0  0  0  0  0  0  0  0
    1.1387    0.8555    0.0000 N   0  0  0  0  0  0  0  0  0  0  0  0
    0.6538    1.5229    0.0000 C   0  0  0  0  0  0  0  0  0  0  0  0
   -0.1712    1.5229    0.0000 C   0  0  0  0  0  0  0  0  0  0  0  0
   -0.5837    0.8085    0.0000 C   0  0  0  0  0  0  0  0  0  0  0  0
   -1.4087    0.8085    0.0000 C   0  0  0  0  0  0  0  0  0  0  0  0
   -1.8212    1.5229    0.0000 C   0  0  0  0  0  0  0  0  0  0  0  0
   -2.6462    1.5229    0.0000 C   0  0  0  0  0  0  0  0  0  0  0  0
   -3.0587    0.8085    0.0000 C   0  0  0  0  0  0  0  0  0  0  0  0
   -3.8837    0.8085    0.0000 C   0  0  0  0  0  0  0  0  0  0  0  0
   -4.2962    1.5229    0.0000 C   0  0  0  0  0  0  0  0  0  0  0  0
   -3.8837    2.2374    0.0000 N   0  0  0  0  0  0  0  0  0  0  0  0
   -3.0587    2.2374    0.0000 C   0  0  0  0  0  0  0  0  0  0  0  0
   -1.4087    2.2374    0.0000 C   0  0  0  0  0  0  0  0  0  0  0  0
   -0.5837    2.2374    0.0000 C   0  0  0  0  0  0  0  0  0  0  0  0
    1.1387    2.1904    0.0000 N   0  0  0  0  0  0  0  0  0  0  0  0
    1.9233    1.9354    0.0000 C   0  0  0  0  0  0  0  0  0  0  0  0
    2.6378    2.3479    0.0000 C   0  0  0  0  0  0  0  0  0  0  0  0
  1  2  1  0  0  0  0
  2  3  4  0  0  0  0
  3  4  4  0  0  0  0
  4  5  1  0  0  0  0
  5  6  2  0  0  0  0
  5  7  1  0  0  0  0
  4  8  4  0  0  0  0
  8  9  4  0  0  0  0
  9 10  4  0  0  0  0
 10 11  1  0  0  0  0
 11 12  4  0  0  0  0
 12 13  4  0  0  0  0
 13 14  4  0  0  0  0
 14 15  1  0  0  0  0
 15 16  4  0  0  0  0
 16 17  4  0  0  0  0
 17 18  4  0  0  0  0
 18 19  4  0  0  0  0
 19 20  4  0  0  0  0
 15 20  4  0  0  0  0
 14 21  4  0  0  0  0
 21 22  4  0  0  0  0
 11 22  4  0  0  0  0
 10 23  4  0  0  0  0
 23 24  4  0  0  0  0
  8 24  4  0  0  0  0
 24 25  4  0  0  0  0
  2 25  4  0  0  0  0
M  STY  1   1 DAT
M  SAL   1  1  23
M  SDT   1 MRV_IMPLICIT_H                                        
M  SDD   1     0.5304   -0.4125    DR    ALL  0       0  
M  SED   1 IMPL_H1
M  END
> <IC50(uM)>
0.407

> <Outcome>
1.0

> <BindingDB ID>
297776

> <BindingDB MonomerID>
155432

> <BindingDB Ligand Name>
US9006454, I59

> <Curation/DataSource>
US Patent

> <Article DOI>
?

> <PMID>
?

> <Patent Number>
US9006454

> <Authors>
Thunuguntla, SS; Subramanya, H; Kunnam, SR; Sanivaru Vijay, SR; Bingi, C; Kusanur, R; Schwarz, M; Arlt, M

> <Link to Ligand in BindingDB>
http://www.bindingdb.org/bind/chemsearch/marvin/MolStructure.jsp?monomerid=155432

> <Link to Ligand-Target Pair in BindingDB>
http://www.bindingdb.org/jsp/dbsearch/PrimarySearch_ki.jsp?energyterm=kJ/mole&tag=r21&monomerid=155432&enzyme=Dihydroorotate+dehydrogenase&column=ki&startPg=0&Increment=50&submit=Search

> <PubChem CID>
46946985

> <PubChem SID>
253658369

$$$$

  Mrv2115 07222212352D          

 23 25  0  0  0  0            999 V2000
    1.8409   -1.9019    0.0000 C   0  0  0  0  0  0  0  0  0  0  0  0
    2.6256   -1.6470    0.0000 C   0  0  0  0  0  0  0  0  0  0  0  0
    2.8805   -0.8624    0.0000 C   0  0  0  0  0  0  0  0  0  0  0  0
    2.3956   -0.1949    0.0000 C   0  0  0  0  0  0  0  0  0  0  0  0
    2.7311    0.5587    0.0000 C   0  0  0  0  0  0  0  0  0  0  0  0
    2.2462    1.2262    0.0000 C   0  0  0  0  0  0  0  0  0  0  0  0
    2.5818    1.9799    0.0000 C   0  0  0  0  0  0  0  0  0  0  0  0
    3.4023    2.0661    0.0000 C   0  0  0  0  0  0  0  0  0  0  0  0
    3.7378    2.8198    0.0000 C   0  0  0  0  0  0  0  0  0  0  0  0
    4.0734    3.5734    0.0000 F   0  0  0  0  0  0  0  0  0  0  0  0
    2.9841    3.1553    0.0000 F   0  0  0  0  0  0  0  0  0  0  0  0
    4.4915    2.4842    0.0000 F   0  0  0  0  0  0  0  0  0  0  0  0
    3.8872    1.3987    0.0000 N   0  0  0  0  0  0  0  0  0  0  0  0
    3.5516    0.6450    0.0000 C   0  0  0  0  0  0  0  0  0  0  0  0
    3.7055   -0.8624    0.0000 C   0  0  0  0  0  0  0  0  0  0  0  0
    3.9604   -1.6470    0.0000 N   0  0  0  0  0  0  0  0  0  0  0  0
    3.2930   -2.1319    0.0000 C   0  0  0  0  0  0  0  0  0  0  0  0
    3.2930   -2.9569    0.0000 C   0  0  0  0  0  0  0  0  0  0  0  0
    2.5785   -3.3694    0.0000 O   0  0  0  0  0  0  0  0  0  0  0  0
    4.0075   -3.3694    0.0000 N   0  0  0  0  0  0  0  0  0  0  0  0
    4.0075   -4.1944    0.0000 C   0  0  0  0  0  0  0  0  0  0  0  0
    4.4200   -4.9089    0.0000 C   0  0  0  0  0  0  0  0  0  0  0  0
    3.5950   -4.9089    0.0000 C   0  0  0  0  0  0  0  0  0  0  0  0
  1  2  1  0  0  0  0
  2  3  4  0  0  0  0
  3  4  1  0  0  0  0
  4  5  1  0  0  0  0
  5  6  4  0  0  0  0
  6  7  4  0  0  0  0
  7  8  4  0  0  0  0
  8  9  1  0  0  0  0
  9 10  1  0  0  0  0
  9 11  1  0  0  0  0
  9 12  1  0  0  0  0
  8 13  4  0  0  0  0
 13 14  4  0  0  0  0
  5 14  4  0  0  0  0
  3 15  4  0  0  0  0
 15 16  4  0  0  0  0
 16 17  4  0  0  0  0
  2 17  4  0  0  0  0
 17 18  1  0  0  0  0
 18 19  2  0  0  0  0
 18 20  1  0  0  0  0
 20 21  1  0  0  0  0
 21 22  1  0  0  0  0
 22 23  1  0  0  0  0
 21 23  1  0  0  0  0
M  STY  1   1 DAT
M  SAL   1  1  16
M  SDT   1 MRV_IMPLICIT_H                                        
M  SDD   1     0.5304   -0.4125    DR    ALL  0       0  
M  SED   1 IMPL_H1
M  END
> <IC50(uM)>
100.0

> <Outcome>
0.0

> <BindingDB ID>
51330096

> <BindingDB MonomerID>
50538344

> <BindingDB Ligand Name>
CHEMBL4633246

> <Curation/DataSource>
ChEMBL

> <Article DOI>
10.1021/acs.jmedchem.0c00311

> <PMID>
32248693

> <Patent Number>
?

> <Authors>
Kokkonda, S; Deng, X; White, KL; El Mazouni, F; White, J; Shackleford, DM; Katneni, K; Chiu, FCK; Barker, H; McLaren, J; Crighton, E; Chen, G; Angulo-Barturen, I; Jimenez-Diaz, MB; Ferrer, S; Huertas-Valentin, L; Martinez-Martinez, MS; Lafuente-Monasterio, MJ; Chittimalla, R; Shahi, SP; Wittlin, S; Waterson, D; Burrows, JN; Matthews, D; Tomchick, D; Rathod, PK; Palmer, MJ; Charman, SA; Phillips, MA

> <Link to Ligand in BindingDB>
http://www.bindingdb.org/bind/chemsearch/marvin/MolStructure.jsp?monomerid=50538344

> <Link to Ligand-Target Pair in BindingDB>
http://www.bindingdb.org/jsp/dbsearch/PrimarySearch_ki.jsp?energyterm=kJ/mole&tag=r21&monomerid=50538344&enzyme=Dihydroorotate+dehydrogenase&column=ki&startPg=0&Increment=50&submit=Search

> <PubChem CID>
154699462

> <PubChem SID>
442139907

$$$$

  Mrv2115 07222212352D          

 37 41  0  0  0  0            999 V2000
   -5.1659   -2.8414    0.0000 C   0  0  0  0  0  0  0  0  0  0  0  0
   -5.5784   -2.1269    0.0000 C   0  0  0  0  0  0  0  0  0  0  0  0
   -6.4034   -2.1269    0.0000 C   0  0  0  0  0  0  0  0  0  0  0  0
   -6.8159   -2.8414    0.0000 N   0  0  0  0  0  0  0  0  0  0  0  0
   -6.8159   -1.4124    0.0000 C   0  0  0  0  0  0  0  0  0  0  0  0
   -6.4034   -0.6979    0.0000 C   0  0  0  0  0  0  0  0  0  0  0  0
   -5.5784   -0.6979    0.0000 C   0  0  0  0  0  0  0  0  0  0  0  0
   -5.1659   -1.4124    0.0000 C   0  0  0  0  0  0  0  0  0  0  0  0
   -4.3409   -1.4124    0.0000 N   0  0  0  0  0  0  0  0  0  0  0  0
   -3.9284   -0.6979    0.0000 C   0  0  0  0  0  0  0  0  0  0  0  0
   -4.3409    0.0165    0.0000 O   0  0  0  0  0  0  0  0  0  0  0  0
   -3.1034   -0.6979    0.0000 C   0  0  0  0  0  0  0  0  0  0  0  0
   -2.6909    0.0165    0.0000 C   0  0  0  0  0  0  0  0  0  0  0  0
   -1.8659    0.0165    0.0000 C   0  0  0  0  0  0  0  0  0  0  0  0
   -1.4534    0.7310    0.0000 F   0  0  0  0  0  0  0  0  0  0  0  0
   -1.4534   -0.6979    0.0000 C   0  0  0  0  0  0  0  0  0  0  0  0
   -0.6284   -0.6979    0.0000 N   0  0  0  0  0  0  0  0  0  0  0  0
   -0.1435   -1.3654    0.0000 N   0  0  0  0  0  0  0  0  0  0  0  0
    0.6411   -1.1104    0.0000 C   0  0  0  0  0  0  0  0  0  0  0  0
    0.6411   -0.2854    0.0000 N   0  0  0  0  0  0  0  0  0  0  0  0
   -0.1435   -0.0305    0.0000 C   0  0  0  0  0  0  0  0  0  0  0  0
   -0.3984    0.7541    0.0000 O   0  0  0  0  0  0  0  0  0  0  0  0
    1.3556    0.1271    0.0000 C   0  0  0  0  0  0  0  0  0  0  0  0
    2.0701   -0.2854    0.0000 C   0  0  0  0  0  0  0  0  0  0  0  0
    2.0701   -1.1104    0.0000 C   0  0  0  0  0  0  0  0  0  0  0  0
    1.3556   -1.5229    0.0000 C   0  0  0  0  0  0  0  0  0  0  0  0
   -1.8659   -1.4124    0.0000 C   0  0  0  0  0  0  0  0  0  0  0  0
   -2.6909   -1.4124    0.0000 C   0  0  0  0  0  0  0  0  0  0  0  0
   -3.1034   -2.1269    0.0000 O   0  0  0  0  0  0  0  0  0  0  0  0
   -2.6909   -2.8414    0.0000 C   0  0  0  0  0  0  0  0  0  0  0  0
   -1.8659   -2.8414    0.0000 C   0  0  0  0  0  0  0  0  0  0  0  0
   -3.1034   -3.5558    0.0000 C   0  0  0  0  0  0  0  0  0  0  0  0
   -2.6909   -4.2703    0.0000 C   0  0  0  0  0  0  0  0  0  0  0  0
   -3.1034   -4.9848    0.0000 C   0  0  0  0  0  0  0  0  0  0  0  0
   -3.9284   -4.9848    0.0000 C   0  0  0  0  0  0  0  0  0  0  0  0
   -4.3409   -4.2703    0.0000 C   0  0  0  0  0  0  0  0  0  0  0  0
   -3.9284   -3.5558    0.0000 C   0  0  0  0  0  0  0  0  0  0  0  0
  1  2  1  0  0  0  0
  2  3  4  0  0  0  0
  3  4  1  0  0  0  0
  3  5  4  0  0  0  0
  5  6  4  0  0  0  0
  6  7  4  0  0  0  0
  7  8  4  0  0  0  0
  2  8  4  0  0  0  0
  8  9  1  0  0  0  0
  9 10  1  0  0  0  0
 10 11  2  0  0  0  0
 10 12  1  0  0  0  0
 12 13  4  0  0  0  0
 13 14  4  0  0  0  0
 14 15  1  0  0  0  0
 14 16  4  0  0  0  0
 16 17  1  0  0  0  0
 17 18  4  0  0  0  0
 18 19  4  0  0  0  0
 19 20  4  0  0  0  0
 20 21  4  0  0  0  0
 17 21  4  0  0  0  0
 21 22  2  0  0  0  0
 20 23  1  0  0  0  0
 23 24  1  0  0  0  0
 24 25  1  0  0  0  0
 25 26  1  0  0  0  0
 19 26  1  0  0  0  0
 16 27  4  0  0  0  0
 27 28  4  0  0  0  0
 12 28  4  0  0  0  0
 28 29  1  0  0  0  0
 29 30  1  0  0  0  0
 30 31  1  0  0  0  0
 30 32  1  0  0  0  0
 32 33  1  0  0  0  0
 33 34  1  0  0  0  0
 34 35  1  0  0  0  0
 35 36  1  0  0  0  0
 36 37  1  0  0  0  0
 32 37  1  0  0  0  0
M  END
> <IC50(uM)>
0.0024

> <Outcome>
1.0

> <BindingDB ID>
1020523

> <BindingDB MonomerID>
490471

> <BindingDB Ligand Name>
N-(3-amino-2-methylphenyl)-2-[(1S)-1-cyclohexylethoxy]-5-fluoro-4-(3-oxo-5,6,7,8-tetrahydro[1,2,4]triazolo[4,3-a]pyridin-2(3H)-yl)benzamide::US10968216, Example 139

> <Curation/DataSource>
US Patent

> <Article DOI>
?

> <PMID>
?

> <Patent Number>
US10968216

> <Authors>
Gradl, SN; Nguyen, D; Eis, K; Gunther, J; Stellfeld, T; Janzer, A; Christian, S; Mueller, T; Sheikh, SE; Zhou, HJ; Zhao, C; Sykes, DB; Ferrara, SJ; Liu, K; Herbert, SA; Merz, C; Niehues, M; Nising, CF; Schafer, M; Zimmermann, K; Knablein, J; Thede, K; Faupel, T

> <Link to Ligand in BindingDB>
http://www.bindingdb.org/bind/chemsearch/marvin/MolStructure.jsp?monomerid=490471

> <Link to Ligand-Target Pair in BindingDB>
http://www.bindingdb.org/jsp/dbsearch/PrimarySearch_ki.jsp?energyterm=kJ/mole&tag=r21&monomerid=490471&enzyme=Dihydroorotate+dehydrogenase&column=ki&startPg=0&Increment=50&submit=Search

> <PubChem CID>
134474134

> <PubChem SID>
447117198

$$$$

  Mrv2115 07222212352D          

 21 23  0  0  0  0            999 V2000
   -3.0587   -2.8414    0.0000 C   0  0  0  0  0  0  0  0  0  0  0  0
   -2.6462   -2.1269    0.0000 C   0  0  0  0  0  0  0  0  0  0  0  0
   -3.0587   -1.4124    0.0000 C   0  0  0  0  0  0  0  0  0  0  0  0
   -2.6462   -0.6979    0.0000 C   0  0  0  0  0  0  0  0  0  0  0  0
   -3.0587    0.0165    0.0000 C   0  0  0  0  0  0  0  0  0  0  0  0
   -1.8212   -0.6979    0.0000 C   0  0  0  0  0  0  0  0  0  0  0  0
   -1.4087   -1.4124    0.0000 C   0  0  0  0  0  0  0  0  0  0  0  0
   -0.5837   -1.4124    0.0000 C   0  0  0  0  0  0  0  0  0  0  0  0
   -0.1712   -0.6979    0.0000 S   0  0  0  0  0  0  0  0  0  0  0  0
    0.6538   -0.6979    0.0000 C   0  0  0  0  0  0  0  0  0  0  0  0
    1.1387   -0.0305    0.0000 N   0  0  0  0  0  0  0  0  0  0  0  0
    1.9233   -0.2854    0.0000 C   0  0  0  0  0  0  0  0  0  0  0  0
    2.6378    0.1271    0.0000 N   0  0  0  0  0  0  0  0  0  0  0  0
    3.3523   -0.2854    0.0000 C   0  0  0  0  0  0  0  0  0  0  0  0
    4.0668    0.1271    0.0000 C   0  0  0  0  0  0  0  0  0  0  0  0
    3.3523   -1.1104    0.0000 C   0  0  0  0  0  0  0  0  0  0  0  0
    2.6378   -1.5229    0.0000 C   0  0  0  0  0  0  0  0  0  0  0  0
    2.6378   -2.3479    0.0000 O   0  0  0  0  0  0  0  0  0  0  0  0
    1.9233   -1.1104    0.0000 N   0  0  0  0  0  0  0  0  0  0  0  0
    1.1387   -1.3654    0.0000 N   0  0  0  0  0  0  0  0  0  0  0  0
   -1.8212   -2.1269    0.0000 C   0  0  0  0  0  0  0  0  0  0  0  0
  1  2  1  0  0  0  0
  2  3  4  0  0  0  0
  3  4  4  0  0  0  0
  4  5  1  0  0  0  0
  4  6  4  0  0  0  0
  6  7  4  0  0  0  0
  7  8  1  0  0  0  0
  8  9  1  0  0  0  0
  9 10  1  0  0  0  0
 10 11  4  0  0  0  0
 11 12  4  0  0  0  0
 12 13  4  0  0  0  0
 13 14  4  0  0  0  0
 14 15  1  0  0  0  0
 14 16  4  0  0  0  0
 16 17  4  0  0  0  0
 17 18  2  0  0  0  0
 17 19  4  0  0  0  0
 12 19  4  0  0  0  0
 19 20  4  0  0  0  0
 10 20  4  0  0  0  0
  7 21  4  0  0  0  0
  2 21  4  0  0  0  0
M  STY  1   1 DAT
M  SAL   1  1  20
M  SDT   1 MRV_IMPLICIT_H                                        
M  SDD   1     0.5304   -0.4125    DR    ALL  0       0  
M  SED   1 IMPL_H1
M  END
> <IC50(uM)>
30.0

> <Outcome>
0.0

> <BindingDB ID>
50970245

> <BindingDB MonomerID>
50397818

> <BindingDB Ligand Name>
CHEMBL2177859

> <Curation/DataSource>
ChEMBL

> <Article DOI>
10.1021/jm300157n

> <PMID>
22621375

> <Patent Number>
?

> <Authors>
Bedingfield, PT; Cowen, D; Acklam, P; Cunningham, F; Parsons, MR; McConkey, GA; Fishwick, CW; Johnson, AP

> <Link to Ligand in BindingDB>
http://www.bindingdb.org/bind/chemsearch/marvin/MolStructure.jsp?monomerid=50397818

> <Link to Ligand-Target Pair in BindingDB>
http://www.bindingdb.org/jsp/dbsearch/PrimarySearch_ki.jsp?energyterm=kJ/mole&tag=r21&monomerid=50397818&enzyme=Dihydroorotate+dehydrogenase&column=ki&startPg=0&Increment=50&submit=Search

> <PubChem CID>
60166486

> <PubChem SID>
163346842

$$$$

  Mrv2115 07222212352D          

 22 23  0  0  0  0            999 V2000
    3.4656    1.1759    0.0000 C   0  0  0  0  0  0  0  0  0  0  0  0
    2.7512    0.7634    0.0000 C   0  0  0  0  0  0  0  0  0  0  0  0
    2.7512   -0.0616    0.0000 O   0  0  0  0  0  0  0  0  0  0  0  0
    2.0367   -0.4741    0.0000 C   0  0  0  0  0  0  0  0  0  0  0  0
    1.3222   -0.0616    0.0000 O   0  0  0  0  0  0  0  0  0  0  0  0
    2.0367   -1.2991    0.0000 C   0  0  0  0  0  0  0  0  0  0  0  0
    2.7041   -1.7840    0.0000 N   0  0  0  0  0  0  0  0  0  0  0  0
    2.4492   -2.5687    0.0000 C   0  0  0  0  0  0  0  0  0  0  0  0
    1.6242   -2.5687    0.0000 C   0  0  0  0  0  0  0  0  0  0  0  0
    1.1393   -3.2361    0.0000 C   0  0  0  0  0  0  0  0  0  0  0  0
    0.3188   -3.1499    0.0000 C   0  0  0  0  0  0  0  0  0  0  0  0
   -0.1661   -3.8173    0.0000 C   0  0  0  0  0  0  0  0  0  0  0  0
   -0.9866   -3.7311    0.0000 C   0  0  0  0  0  0  0  0  0  0  0  0
   -1.3222   -2.9774    0.0000 C   0  0  0  0  0  0  0  0  0  0  0  0
   -2.1426   -2.8911    0.0000 C   0  0  0  0  0  0  0  0  0  0  0  0
   -2.9631   -2.8049    0.0000 F   0  0  0  0  0  0  0  0  0  0  0  0
   -2.0564   -2.0707    0.0000 F   0  0  0  0  0  0  0  0  0  0  0  0
   -2.2289   -3.7116    0.0000 F   0  0  0  0  0  0  0  0  0  0  0  0
   -0.8372   -2.3099    0.0000 C   0  0  0  0  0  0  0  0  0  0  0  0
   -0.0168   -2.3962    0.0000 C   0  0  0  0  0  0  0  0  0  0  0  0
    1.3693   -1.7840    0.0000 C   0  0  0  0  0  0  0  0  0  0  0  0
    0.5846   -1.5291    0.0000 C   0  0  0  0  0  0  0  0  0  0  0  0
  1  2  1  0  0  0  0
  2  3  1  0  0  0  0
  3  4  1  0  0  0  0
  4  5  2  0  0  0  0
  4  6  1  0  0  0  0
  6  7  4  0  0  0  0
  7  8  4  0  0  0  0
  8  9  4  0  0  0  0
  9 10  1  0  0  0  0
 10 11  1  0  0  0  0
 11 12  4  0  0  0  0
 12 13  4  0  0  0  0
 13 14  4  0  0  0  0
 14 15  1  0  0  0  0
 15 16  1  0  0  0  0
 15 17  1  0  0  0  0
 15 18  1  0  0  0  0
 14 19  4  0  0  0  0
 19 20  4  0  0  0  0
 11 20  4  0  0  0  0
  9 21  4  0  0  0  0
  6 21  4  0  0  0  0
 21 22  1  0  0  0  0
M  STY  1   1 DAT
M  SAL   1  1   7
M  SDT   1 MRV_IMPLICIT_H                                        
M  SDD   1     0.5304   -0.4125    DR    ALL  0       0  
M  SED   1 IMPL_H1
M  END
> <IC50(uM)>
100.0

> <Outcome>
0.0

> <BindingDB ID>
51330108

> <BindingDB MonomerID>
50538356

> <BindingDB Ligand Name>
CHEMBL4645475

> <Curation/DataSource>
ChEMBL

> <Article DOI>
10.1021/acs.jmedchem.0c00311

> <PMID>
32248693

> <Patent Number>
?

> <Authors>
Kokkonda, S; Deng, X; White, KL; El Mazouni, F; White, J; Shackleford, DM; Katneni, K; Chiu, FCK; Barker, H; McLaren, J; Crighton, E; Chen, G; Angulo-Barturen, I; Jimenez-Diaz, MB; Ferrer, S; Huertas-Valentin, L; Martinez-Martinez, MS; Lafuente-Monasterio, MJ; Chittimalla, R; Shahi, SP; Wittlin, S; Waterson, D; Burrows, JN; Matthews, D; Tomchick, D; Rathod, PK; Palmer, MJ; Charman, SA; Phillips, MA

> <Link to Ligand in BindingDB>
http://www.bindingdb.org/bind/chemsearch/marvin/MolStructure.jsp?monomerid=50538356

> <Link to Ligand-Target Pair in BindingDB>
http://www.bindingdb.org/jsp/dbsearch/PrimarySearch_ki.jsp?energyterm=kJ/mole&tag=r21&monomerid=50538356&enzyme=Dihydroorotate+dehydrogenase&column=ki&startPg=0&Increment=50&submit=Search

> <PubChem CID>
156019131

> <PubChem SID>
442139919

$$$$

  Mrv2115 07222212352D          

 29 32  0  0  0  0            999 V2000
   -0.1712   -0.6979    0.0000 C   0  0  0  0  0  0  0  0  0  0  0  0
    0.6538   -0.6979    0.0000 N   0  0  0  0  0  0  0  0  0  0  0  0
    1.1387   -0.0305    0.0000 N   0  0  0  0  0  0  0  0  0  0  0  0
    1.9233   -0.2854    0.0000 C   0  0  0  0  0  0  0  0  0  0  0  0
    2.6378    0.1271    0.0000 C   0  0  0  0  0  0  0  0  0  0  0  0
    3.3523   -0.2854    0.0000 C   0  0  0  0  0  0  0  0  0  0  0  0
    4.0668    0.1271    0.0000 C   0  0  0  0  0  0  0  0  0  0  0  0
    4.0668    0.9521    0.0000 C   0  0  0  0  0  0  0  0  0  0  0  0
    3.3523    1.3646    0.0000 F   0  0  0  0  0  0  0  0  0  0  0  0
    4.7812    1.3646    0.0000 C   0  0  0  0  0  0  0  0  0  0  0  0
    4.7812    2.1896    0.0000 F   0  0  0  0  0  0  0  0  0  0  0  0
    5.4957    0.9521    0.0000 C   0  0  0  0  0  0  0  0  0  0  0  0
    6.2102    1.3646    0.0000 C   0  0  0  0  0  0  0  0  0  0  0  0
    6.2102    2.1896    0.0000 C   0  0  0  0  0  0  0  0  0  0  0  0
    6.9246    2.6021    0.0000 C   0  0  0  0  0  0  0  0  0  0  0  0
    7.6391    2.1896    0.0000 C   0  0  0  0  0  0  0  0  0  0  0  0
    7.6391    1.3646    0.0000 C   0  0  0  0  0  0  0  0  0  0  0  0
    6.9246    0.9521    0.0000 C   0  0  0  0  0  0  0  0  0  0  0  0
    5.4957    0.1271    0.0000 C   0  0  0  0  0  0  0  0  0  0  0  0
    6.2102   -0.2854    0.0000 F   0  0  0  0  0  0  0  0  0  0  0  0
    4.7812   -0.2854    0.0000 C   0  0  0  0  0  0  0  0  0  0  0  0
    4.7812   -1.1104    0.0000 F   0  0  0  0  0  0  0  0  0  0  0  0
    3.3523   -1.1104    0.0000 C   0  0  0  0  0  0  0  0  0  0  0  0
    2.6378   -1.5229    0.0000 C   0  0  0  0  0  0  0  0  0  0  0  0
    2.6378   -2.3479    0.0000 C   0  0  0  0  0  0  0  0  0  0  0  0
    1.9233   -2.7604    0.0000 O   0  0  0  0  0  0  0  0  0  0  0  0
    3.3523   -2.7604    0.0000 O   0  0  0  0  0  0  0  0  0  0  0  0
    1.9233   -1.1104    0.0000 C   0  0  0  0  0  0  0  0  0  0  0  0
    1.1387   -1.3654    0.0000 N   0  0  0  0  0  0  0  0  0  0  0  0
  1  2  1  0  0  0  0
  2  3  4  0  0  0  0
  3  4  4  0  0  0  0
  4  5  4  0  0  0  0
  5  6  4  0  0  0  0
  6  7  1  0  0  0  0
  7  8  4  0  0  0  0
  8  9  1  0  0  0  0
  8 10  4  0  0  0  0
 10 11  1  0  0  0  0
 10 12  4  0  0  0  0
 12 13  1  0  0  0  0
 13 14  4  0  0  0  0
 14 15  4  0  0  0  0
 15 16  4  0  0  0  0
 16 17  4  0  0  0  0
 17 18  4  0  0  0  0
 13 18  4  0  0  0  0
 12 19  4  0  0  0  0
 19 20  1  0  0  0  0
 19 21  4  0  0  0  0
  7 21  4  0  0  0  0
 21 22  1  0  0  0  0
  6 23  4  0  0  0  0
 23 24  4  0  0  0  0
 24 25  1  0  0  0  0
 25 26  2  0  0  0  0
 25 27  1  0  0  0  0
 24 28  4  0  0  0  0
  4 28  4  0  0  0  0
 28 29  4  0  0  0  0
  2 29  4  0  0  0  0
M  END
> <IC50(uM)>
0.1

> <Outcome>
1.0

> <BindingDB ID>
1100163

> <BindingDB MonomerID>
520622

> <BindingDB Ligand Name>
2-methyl-6-(2,3,5,6-tetrafluoro-[1,1'-biphenyl]-4-yl)-2H-benzo[d][1,2,3]triazole- 4-carboxylic acid;::US11147801, Compound 24

> <Curation/DataSource>
US Patent

> <Article DOI>
?

> <PMID>
?

> <Patent Number>
US11147801

> <Authors>
Nellore, K; Hosahalli, S

> <Link to Ligand in BindingDB>
http://www.bindingdb.org/bind/chemsearch/marvin/MolStructure.jsp?monomerid=520622

> <Link to Ligand-Target Pair in BindingDB>
http://www.bindingdb.org/jsp/dbsearch/PrimarySearch_ki.jsp?energyterm=kJ/mole&tag=r21&monomerid=520622&enzyme=Dihydroorotate+dehydrogenase&column=ki&startPg=0&Increment=50&submit=Search

> <PubChem CID>
?

> <PubChem SID>
?

$$$$

  Mrv2115 07222212352D          

 29 32  0  0  0  0            999 V2000
    4.0668    2.3479    0.0000 C   0  0  0  0  0  0  0  0  0  0  0  0
    3.3523    1.9354    0.0000 C   0  0  0  0  0  0  0  0  0  0  0  0
    3.3523    1.1104    0.0000 C   0  0  0  0  0  0  0  0  0  0  0  0
    2.6378    0.6979    0.0000 C   0  0  0  0  0  0  0  0  0  0  0  0
    2.6378   -0.1271    0.0000 C   0  0  0  0  0  0  0  0  0  0  0  0
    1.9233   -0.5396    0.0000 N   0  0  0  0  0  0  0  0  0  0  0  0
    3.3523   -0.5396    0.0000 O   0  0  0  0  0  0  0  0  0  0  0  0
    1.9233    1.1104    0.0000 C   0  0  0  0  0  0  0  0  0  0  0  0
    1.1387    0.8555    0.0000 N   0  0  0  0  0  0  0  0  0  0  0  0
    0.6538    1.5229    0.0000 C   0  0  0  0  0  0  0  0  0  0  0  0
   -0.1712    1.5229    0.0000 C   0  0  0  0  0  0  0  0  0  0  0  0
   -0.5837    0.8085    0.0000 C   0  0  0  0  0  0  0  0  0  0  0  0
   -0.1712    0.0940    0.0000 F   0  0  0  0  0  0  0  0  0  0  0  0
   -1.4087    0.8085    0.0000 C   0  0  0  0  0  0  0  0  0  0  0  0
   -1.8212    0.0940    0.0000 F   0  0  0  0  0  0  0  0  0  0  0  0
   -1.8212    1.5229    0.0000 C   0  0  0  0  0  0  0  0  0  0  0  0
   -2.6462    1.5229    0.0000 C   0  0  0  0  0  0  0  0  0  0  0  0
   -3.0587    0.8085    0.0000 C   0  0  0  0  0  0  0  0  0  0  0  0
   -3.8837    0.8085    0.0000 C   0  0  0  0  0  0  0  0  0  0  0  0
   -4.2962    1.5229    0.0000 C   0  0  0  0  0  0  0  0  0  0  0  0
   -3.8837    2.2374    0.0000 C   0  0  0  0  0  0  0  0  0  0  0  0
   -3.0587    2.2374    0.0000 C   0  0  0  0  0  0  0  0  0  0  0  0
   -1.4087    2.2374    0.0000 C   0  0  0  0  0  0  0  0  0  0  0  0
   -1.8212    2.9519    0.0000 F   0  0  0  0  0  0  0  0  0  0  0  0
   -0.5837    2.2374    0.0000 C   0  0  0  0  0  0  0  0  0  0  0  0
   -0.1712    2.9519    0.0000 F   0  0  0  0  0  0  0  0  0  0  0  0
    1.1387    2.1904    0.0000 N   0  0  0  0  0  0  0  0  0  0  0  0
    1.9233    1.9354    0.0000 C   0  0  0  0  0  0  0  0  0  0  0  0
    2.6378    2.3479    0.0000 C   0  0  0  0  0  0  0  0  0  0  0  0
  1  2  1  0  0  0  0
  2  3  4  0  0  0  0
  3  4  4  0  0  0  0
  4  5  1  0  0  0  0
  5  6  1  0  0  0  0
  5  7  2  0  0  0  0
  4  8  4  0  0  0  0
  8  9  4  0  0  0  0
  9 10  4  0  0  0  0
 10 11  1  0  0  0  0
 11 12  4  0  0  0  0
 12 13  1  0  0  0  0
 12 14  4  0  0  0  0
 14 15  1  0  0  0  0
 14 16  4  0  0  0  0
 16 17  1  0  0  0  0
 17 18  4  0  0  0  0
 18 19  4  0  0  0  0
 19 20  4  0  0  0  0
 20 21  4  0  0  0  0
 21 22  4  0  0  0  0
 17 22  4  0  0  0  0
 16 23  4  0  0  0  0
 23 24  1  0  0  0  0
 23 25  4  0  0  0  0
 11 25  4  0  0  0  0
 25 26  1  0  0  0  0
 10 27  4  0  0  0  0
 27 28  4  0  0  0  0
  8 28  4  0  0  0  0
 28 29  4  0  0  0  0
  2 29  4  0  0  0  0
M  STY  1   1 DAT
M  SAL   1  1  27
M  SDT   1 MRV_IMPLICIT_H                                        
M  SDD   1     0.5304   -0.4125    DR    ALL  0       0  
M  SED   1 IMPL_H1
M  END
> <IC50(uM)>
0.446

> <Outcome>
1.0

> <BindingDB ID>
297804

> <BindingDB MonomerID>
155460

> <BindingDB Ligand Name>
US9006454, I102

> <Curation/DataSource>
US Patent

> <Article DOI>
?

> <PMID>
?

> <Patent Number>
US9006454

> <Authors>
Thunuguntla, SS; Subramanya, H; Kunnam, SR; Sanivaru Vijay, SR; Bingi, C; Kusanur, R; Schwarz, M; Arlt, M

> <Link to Ligand in BindingDB>
http://www.bindingdb.org/bind/chemsearch/marvin/MolStructure.jsp?monomerid=155460

> <Link to Ligand-Target Pair in BindingDB>
http://www.bindingdb.org/jsp/dbsearch/PrimarySearch_ki.jsp?energyterm=kJ/mole&tag=r21&monomerid=155460&enzyme=Dihydroorotate+dehydrogenase&column=ki&startPg=0&Increment=50&submit=Search

> <PubChem CID>
58073780

> <PubChem SID>
253658397

$$$$

  Mrv2115 07222212352D          

 22 23  0  0  0  0            999 V2000
    3.4656    1.1759    0.0000 C   0  0  0  0  0  0  0  0  0  0  0  0
    2.7512    0.7634    0.0000 C   0  0  0  0  0  0  0  0  0  0  0  0
    2.7512   -0.0616    0.0000 O   0  0  0  0  0  0  0  0  0  0  0  0
    2.0367   -0.4741    0.0000 C   0  0  0  0  0  0  0  0  0  0  0  0
    1.3222   -0.0616    0.0000 O   0  0  0  0  0  0  0  0  0  0  0  0
    2.0367   -1.2991    0.0000 C   0  0  0  0  0  0  0  0  0  0  0  0
    2.7041   -1.7840    0.0000 N   0  0  0  0  0  0  0  0  0  0  0  0
    2.4492   -2.5687    0.0000 C   0  0  0  0  0  0  0  0  0  0  0  0
    2.9341   -3.2361    0.0000 C   0  0  0  0  0  0  0  0  0  0  0  0
    1.6242   -2.5687    0.0000 C   0  0  0  0  0  0  0  0  0  0  0  0
    1.1393   -3.2361    0.0000 C   0  0  0  0  0  0  0  0  0  0  0  0
    0.3188   -3.1499    0.0000 C   0  0  0  0  0  0  0  0  0  0  0  0
   -0.1661   -3.8173    0.0000 C   0  0  0  0  0  0  0  0  0  0  0  0
   -0.9866   -3.7311    0.0000 C   0  0  0  0  0  0  0  0  0  0  0  0
   -1.3222   -2.9774    0.0000 C   0  0  0  0  0  0  0  0  0  0  0  0
   -2.1426   -2.8911    0.0000 O   0  0  0  0  0  0  0  0  0  0  0  0
   -2.6276   -3.5586    0.0000 C   0  0  0  0  0  0  0  0  0  0  0  0
   -2.2920   -4.3123    0.0000 C   0  0  0  0  0  0  0  0  0  0  0  0
   -0.8372   -2.3099    0.0000 C   0  0  0  0  0  0  0  0  0  0  0  0
   -0.0168   -2.3962    0.0000 C   0  0  0  0  0  0  0  0  0  0  0  0
    1.3693   -1.7840    0.0000 C   0  0  0  0  0  0  0  0  0  0  0  0
    0.5846   -1.5291    0.0000 C   0  0  0  0  0  0  0  0  0  0  0  0
  1  2  1  0  0  0  0
  2  3  1  0  0  0  0
  3  4  1  0  0  0  0
  4  5  2  0  0  0  0
  4  6  1  0  0  0  0
  6  7  4  0  0  0  0
  7  8  4  0  0  0  0
  8  9  1  0  0  0  0
  8 10  4  0  0  0  0
 10 11  1  0  0  0  0
 11 12  1  0  0  0  0
 12 13  4  0  0  0  0
 13 14  4  0  0  0  0
 14 15  4  0  0  0  0
 15 16  1  0  0  0  0
 16 17  1  0  0  0  0
 17 18  1  0  0  0  0
 15 19  4  0  0  0  0
 19 20  4  0  0  0  0
 12 20  4  0  0  0  0
 10 21  4  0  0  0  0
  6 21  4  0  0  0  0
 21 22  1  0  0  0  0
M  STY  1   1 DAT
M  SAL   1  1   7
M  SDT   1 MRV_IMPLICIT_H                                        
M  SDD   1     0.5304   -0.4125    DR    ALL  0       0  
M  SED   1 IMPL_H1
M  END
> <IC50(uM)>
53.33333333333333

> <Outcome>
0.0

> <BindingDB ID>
248281; 200944; 51330077

> <BindingDB MonomerID>
92606

> <BindingDB Ligand Name>
DHOD Inhibitor, 5::US8703811, 6

> <Curation/DataSource>
US Patent; Curated from the literature by BindingDB; ChEMBL

> <Article DOI>
?; 10.1074/jbc.M804990200; 10.1021/acs.jmedchem.0c00311

> <PMID>
?; 18842591; 32248693

> <Patent Number>
US8703811; ?

> <Authors>
Bastos, C; Booker, ML; Celatka, CA; Clardy, JC; Cortese, J; Patel, VP; Skerlj, R; Wiegand, RC; Wirth, DF; Patel, V; Booker, M; Kramer, M; Ross, L; Celatka, CA; Kennedy, LM; Dvorin, JD; Duraisingh, MT; Sliz, P; Wirth, DF; Clardy, J; Kokkonda, S; Deng, X; White, KL; El Mazouni, F; White, J; Shackleford, DM; Katneni, K; Chiu, FCK; Barker, H; McLaren, J; Crighton, E; Chen, G; Angulo-Barturen, I; Jimenez-Diaz, MB; Ferrer, S; Huertas-Valentin, L; Martinez-Martinez, MS; Lafuente-Monasterio, MJ; Chittimalla, R; Shahi, SP; Wittlin, S; Waterson, D; Burrows, JN; Matthews, D; Tomchick, D; Rathod, PK; Palmer, MJ; Charman, SA; Phillips, MA

> <Link to Ligand in BindingDB>
http://www.bindingdb.org/bind/chemsearch/marvin/MolStructure.jsp?monomerid=92606

> <Link to Ligand-Target Pair in BindingDB>
http://www.bindingdb.org/jsp/dbsearch/PrimarySearch_ki.jsp?energyterm=kJ/mole&tag=r21&monomerid=92606&enzyme=Dihydroorotate+dehydrogenase&column=ki&startPg=0&Increment=50&submit=Search

> <PubChem CID>
750102

> <PubChem SID>
160845103

$$$$

  Mrv2115 07222212352D          

 34 36  0  0  0  0            999 V2000
   -2.6111   -4.9837    0.0000 C   0  0  0  0  0  0  0  0  0  0  0  0
   -2.1262   -4.3163    0.0000 C   0  0  0  0  0  0  0  0  0  0  0  0
   -1.3057   -4.4025    0.0000 C   0  0  0  0  0  0  0  0  0  0  0  0
   -0.7537   -3.7894    0.0000 N   0  0  0  0  0  0  0  0  0  0  0  0
    0.0000   -4.1250    0.0000 N   0  0  0  0  0  0  0  0  0  0  0  0
    0.7145   -3.7125    0.0000 C   0  0  0  0  0  0  0  0  0  0  0  0
    0.7145   -2.8875    0.0000 C   0  0  0  0  0  0  0  0  0  0  0  0
    1.4289   -2.4750    0.0000 C   0  0  0  0  0  0  0  0  0  0  0  0
    1.4289   -1.6500    0.0000 O   0  0  0  0  0  0  0  0  0  0  0  0
    0.7145   -1.2375    0.0000 C   0  0  0  0  0  0  0  0  0  0  0  0
    0.0000   -1.6500    0.0000 C   0  0  0  0  0  0  0  0  0  0  0  0
    0.7145   -0.4125    0.0000 C   0  0  0  0  0  0  0  0  0  0  0  0
    0.0000    0.0000    0.0000 C   0  0  0  0  0  0  0  0  0  0  0  0
    0.0000    0.8250    0.0000 C   0  0  0  0  0  0  0  0  0  0  0  0
    0.7145    1.2375    0.0000 C   0  0  0  0  0  0  0  0  0  0  0  0
    1.4289    0.8250    0.0000 C   0  0  0  0  0  0  0  0  0  0  0  0
    1.4289    0.0000    0.0000 C   0  0  0  0  0  0  0  0  0  0  0  0
    2.1434   -2.8875    0.0000 C   0  0  0  0  0  0  0  0  0  0  0  0
    2.8579   -2.4750    0.0000 C   0  0  0  0  0  0  0  0  0  0  0  0
    2.8579   -1.6500    0.0000 O   0  0  0  0  0  0  0  0  0  0  0  0
    3.5724   -2.8875    0.0000 N   0  0  0  0  0  0  0  0  0  0  0  0
    4.2868   -2.4750    0.0000 C   0  0  0  0  0  0  0  0  0  0  0  0
    4.2868   -1.6500    0.0000 C   0  0  0  0  0  0  0  0  0  0  0  0
    5.0013   -1.2375    0.0000 C   0  0  0  0  0  0  0  0  0  0  0  0
    5.0013   -2.8875    0.0000 C   0  0  0  0  0  0  0  0  0  0  0  0
    5.7158   -2.4750    0.0000 C   0  0  0  0  0  0  0  0  0  0  0  0
    6.4302   -2.0625    0.0000 N   0  0  0  0  0  0  0  0  0  0  0  0
    2.1434   -3.7125    0.0000 C   0  0  0  0  0  0  0  0  0  0  0  0
    1.4289   -4.1250    0.0000 C   0  0  0  0  0  0  0  0  0  0  0  0
    1.4289   -4.9500    0.0000 F   0  0  0  0  0  0  0  0  0  0  0  0
   -0.0862   -4.9455    0.0000 C   0  0  0  0  0  0  0  0  0  0  0  0
    0.5269   -5.4975    0.0000 O   0  0  0  0  0  0  0  0  0  0  0  0
   -0.8932   -5.1170    0.0000 N   0  0  0  0  0  0  0  0  0  0  0  0
   -1.2288   -5.8707    0.0000 C   0  0  0  0  0  0  0  0  0  0  0  0
  1  2  1  0  0  0  0
  2  3  1  0  0  0  0
  3  4  4  0  0  0  0
  4  5  4  0  0  0  0
  5  6  1  0  0  0  0
  6  7  4  0  0  0  0
  7  8  4  0  0  0  0
  8  9  1  0  0  0  0
  9 10  1  0  0  0  0
 10 11  1  0  0  0  0
 10 12  1  0  0  0  0
 12 13  4  0  0  0  0
 13 14  4  0  0  0  0
 14 15  4  0  0  0  0
 15 16  4  0  0  0  0
 16 17  4  0  0  0  0
 12 17  4  0  0  0  0
  8 18  4  0  0  0  0
 18 19  1  0  0  0  0
 19 20  2  0  0  0  0
 19 21  1  0  0  0  0
 21 22  1  0  0  0  0
 22 23  1  0  0  0  0
 23 24  1  0  0  0  0
 22 25  1  0  0  0  0
 25 26  1  0  0  0  0
 26 27  3  0  0  0  0
 18 28  4  0  0  0  0
 28 29  4  0  0  0  0
  6 29  4  0  0  0  0
 29 30  1  0  0  0  0
  5 31  4  0  0  0  0
 31 32  2  0  0  0  0
 31 33  4  0  0  0  0
  3 33  4  0  0  0  0
 33 34  1  0  0  0  0
M  END
> <IC50(uM)>
2.9

> <Outcome>
0.0

> <BindingDB ID>
1098823; 972669

> <BindingDB MonomerID>
470547

> <BindingDB Ligand Name>
N-(1-cyanobutan-2-yl)-4-(3-ethyl-4-methyl-5-oxo-4,5-dihydro-1H-1,2,4-triazol-1-yl)-5-fluoro-2-[(1S)-1-phenylethoxy]benzamide::US10815215, Example 207::US11130745, Example 207; N-(1-cyanobutan-2-yl)-4-(3-ethyl-4-methyl-5-oxo-4,5-dihydro-1H-1,2,4-triazol-1-yl)-5-fluoro-2-[(1S)-1-phenylethoxy]benzamide::US10815215, Example 207

> <Curation/DataSource>
US Patent

> <Article DOI>
?

> <PMID>
?

> <Patent Number>
US11130745; US10815215

> <Authors>
Gradl, SN; Nguyen, D; Eis, K; Gunther, J; Stellfeld, T; Janzer, A; Christian, S; Muller, T; Sheikh, SE; Sykes, DB; Ferrara, SJ; Krober, M; Merz, C; Niehues, M; Schafer, M; Zimmermann, K; Nising, CF; Gradl, SN; Nguyen, D; Eis, K; Gunther, J; Stellfeld, T; Janzer, A; Christian, S; Muller, T; Sheikh, SE; Zhou, HJ; Zhao, C; Sykes, DB; Ferrara, SJ; Liu, K; Krober, M; Merz, C; Niehues, M; Schafer, M; Zimmermann, K; Nising, CF

> <Link to Ligand in BindingDB>
http://www.bindingdb.org/bind/chemsearch/marvin/MolStructure.jsp?monomerid=470547

> <Link to Ligand-Target Pair in BindingDB>
http://www.bindingdb.org/jsp/dbsearch/PrimarySearch_ki.jsp?energyterm=kJ/mole&tag=r21&monomerid=470547&enzyme=Dihydroorotate+dehydrogenase&column=ki&startPg=0&Increment=50&submit=Search

> <PubChem CID>
134470403

> <PubChem SID>
441609723

$$$$

  Mrv2115 07222212352D          

 27 28  0  0  0  0            999 V2000
    1.4289   -6.6000    0.0000 C   0  0  0  0  0  0  0  0  0  0  0  0
    2.1434   -6.1875    0.0000 C   0  0  0  0  0  0  0  0  0  0  0  0
    2.8579   -6.6000    0.0000 C   0  0  0  0  0  0  0  0  0  0  0  0
    2.8579   -7.4250    0.0000 O   0  0  0  0  0  0  0  0  0  0  0  0
    3.5724   -6.1875    0.0000 C   0  0  0  0  0  0  0  0  0  0  0  0
    3.5724   -5.3625    0.0000 C   0  0  0  0  0  0  0  0  0  0  0  0
    3.5724   -4.5375    0.0000 N   0  0  0  0  0  0  0  0  0  0  0  0
    4.2868   -6.6000    0.0000 C   0  0  0  0  0  0  0  0  0  0  0  0
    4.2868   -7.4250    0.0000 O   0  0  0  0  0  0  0  0  0  0  0  0
    5.0013   -6.1875    0.0000 N   0  0  0  0  0  0  0  0  0  0  0  0
    5.7158   -6.6000    0.0000 C   0  0  0  0  0  0  0  0  0  0  0  0
    6.4302   -6.1875    0.0000 C   0  0  0  0  0  0  0  0  0  0  0  0
    7.1447   -6.6000    0.0000 C   0  0  0  0  0  0  0  0  0  0  0  0
    7.1447   -7.4250    0.0000 C   0  0  0  0  0  0  0  0  0  0  0  0
    7.8592   -7.8375    0.0000 C   0  0  0  0  0  0  0  0  0  0  0  0
    8.5737   -7.4250    0.0000 C   0  0  0  0  0  0  0  0  0  0  0  0
    9.2881   -7.8375    0.0000 C   0  0  0  0  0  0  0  0  0  0  0  0
    9.2881   -8.6625    0.0000 C   0  0  0  0  0  0  0  0  0  0  0  0
   10.0026   -9.0750    0.0000 Cl  0  0  0  0  0  0  0  0  0  0  0  0
    8.5737   -9.0750    0.0000 C   0  0  0  0  0  0  0  0  0  0  0  0
    7.8592   -8.6625    0.0000 C   0  0  0  0  0  0  0  0  0  0  0  0
    6.4302   -7.8375    0.0000 C   0  0  0  0  0  0  0  0  0  0  0  0
    6.4302   -8.6625    0.0000 C   0  0  0  0  0  0  0  0  0  0  0  0
    5.7158   -9.0750    0.0000 O   0  0  0  0  0  0  0  0  0  0  0  0
    7.1447   -9.0750    0.0000 O   0  0  0  0  0  0  0  0  0  0  0  0
    7.1447   -9.9000    0.0000 C   0  0  0  0  0  0  0  0  0  0  0  0
    5.7158   -7.4250    0.0000 C   0  0  0  0  0  0  0  0  0  0  0  0
  1  2  1  0  0  0  0
  2  3  1  0  0  0  0
  3  4  2  0  0  0  0
  3  5  1  0  0  0  0
  5  6  1  0  0  0  0
  6  7  3  0  0  0  0
  5  8  1  0  0  0  0
  8  9  2  0  0  0  0
  8 10  1  0  0  0  0
 10 11  1  0  0  0  0
 11 12  4  0  0  0  0
 12 13  4  0  0  0  0
 13 14  4  0  0  0  0
 14 15  1  0  0  0  0
 15 16  4  0  0  0  0
 16 17  4  0  0  0  0
 17 18  4  0  0  0  0
 18 19  1  0  0  0  0
 18 20  4  0  0  0  0
 20 21  4  0  0  0  0
 15 21  4  0  0  0  0
 14 22  4  0  0  0  0
 22 23  1  0  0  0  0
 23 24  2  0  0  0  0
 23 25  1  0  0  0  0
 25 26  1  0  0  0  0
 22 27  4  0  0  0  0
 11 27  4  0  0  0  0
M  END
> <IC50(uM)>
0.045

> <Outcome>
1.0

> <BindingDB ID>
50707373

> <BindingDB MonomerID>
50359694

> <BindingDB Ligand Name>
CHEMBL1929438

> <Curation/DataSource>
ChEMBL

> <Article DOI>
10.1016/j.bmcl.2011.10.052

> <PMID>
22078215

> <Patent Number>
?

> <Authors>
Erra, M; Moreno, I; Sanahuja, J; Andres, M; Reinoso, RF; Lozoya, E; Pizcueta, P; Godessart, N; Castro-Palomino, JC

> <Link to Ligand in BindingDB>
http://www.bindingdb.org/bind/chemsearch/marvin/MolStructure.jsp?monomerid=50359694

> <Link to Ligand-Target Pair in BindingDB>
http://www.bindingdb.org/jsp/dbsearch/PrimarySearch_ki.jsp?energyterm=kJ/mole&tag=r21&monomerid=50359694&enzyme=Dihydroorotate+dehydrogenase&column=ki&startPg=0&Increment=50&submit=Search

> <PubChem CID>
91930442

> <PubChem SID>
136963718

$$$$

  Mrv2115 07222212352D          

 22 24  0  0  0  0            999 V2000
   -2.5067   -4.6160    0.0000 C   0  0  0  0  0  0  0  0  0  0  0  0
   -1.8936   -4.0640    0.0000 C   0  0  0  0  0  0  0  0  0  0  0  0
   -2.0652   -3.2570    0.0000 O   0  0  0  0  0  0  0  0  0  0  0  0
   -1.4521   -2.7050    0.0000 C   0  0  0  0  0  0  0  0  0  0  0  0
   -1.6236   -1.8980    0.0000 O   0  0  0  0  0  0  0  0  0  0  0  0
   -0.6674   -2.9599    0.0000 C   0  0  0  0  0  0  0  0  0  0  0  0
   -0.4125   -3.7445    0.0000 C   0  0  0  0  0  0  0  0  0  0  0  0
   -0.8974   -4.4120    0.0000 O   0  0  0  0  0  0  0  0  0  0  0  0
    0.4125   -3.7445    0.0000 C   0  0  0  0  0  0  0  0  0  0  0  0
    0.6674   -2.9599    0.0000 S   0  0  0  0  0  0  0  0  0  0  0  0
    0.0000   -2.4750    0.0000 C   0  0  0  0  0  0  0  0  0  0  0  0
    0.0000   -1.6500    0.0000 N   0  0  0  0  0  0  0  0  0  0  0  0
    0.7145   -1.2375    0.0000 C   0  0  0  0  0  0  0  0  0  0  0  0
    0.7145   -0.4125    0.0000 C   0  0  0  0  0  0  0  0  0  0  0  0
    1.4289    0.0000    0.0000 C   0  0  0  0  0  0  0  0  0  0  0  0
    2.1434   -0.4125    0.0000 C   0  0  0  0  0  0  0  0  0  0  0  0
    2.8579    0.0000    0.0000 C   0  0  0  0  0  0  0  0  0  0  0  0
    3.5724   -0.4125    0.0000 C   0  0  0  0  0  0  0  0  0  0  0  0
    3.5724   -1.2375    0.0000 C   0  0  0  0  0  0  0  0  0  0  0  0
    2.8579   -1.6500    0.0000 C   0  0  0  0  0  0  0  0  0  0  0  0
    2.1434   -1.2375    0.0000 C   0  0  0  0  0  0  0  0  0  0  0  0
    1.4289   -1.6500    0.0000 C   0  0  0  0  0  0  0  0  0  0  0  0
  1  2  1  0  0  0  0
  2  3  1  0  0  0  0
  3  4  1  0  0  0  0
  4  5  2  0  0  0  0
  4  6  1  0  0  0  0
  6  7  4  0  0  0  0
  7  8  1  0  0  0  0
  7  9  4  0  0  0  0
  9 10  4  0  0  0  0
 10 11  4  0  0  0  0
  6 11  4  0  0  0  0
 11 12  1  0  0  0  0
 12 13  1  0  0  0  0
 13 14  4  0  0  0  0
 14 15  4  0  0  0  0
 15 16  4  0  0  0  0
 16 17  4  0  0  0  0
 17 18  4  0  0  0  0
 18 19  4  0  0  0  0
 19 20  4  0  0  0  0
 20 21  4  0  0  0  0
 16 21  4  0  0  0  0
 21 22  4  0  0  0  0
 13 22  4  0  0  0  0
M  END
> <IC50(uM)>
50.0

> <Outcome>
0.0

> <BindingDB ID>
51079170

> <BindingDB MonomerID>
50441278

> <BindingDB Ligand Name>
CHEMBL2431515

> <Curation/DataSource>
ChEMBL

> <Article DOI>
10.1021/jm400938g

> <PMID>
24073986

> <Patent Number>
?

> <Authors>
Xu, M; Zhu, J; Diao, Y; Zhou, H; Ren, X; Sun, D; Huang, J; Han, D; Zhao, Z; Zhu, L; Xu, Y; Li, H

> <Link to Ligand in BindingDB>
http://www.bindingdb.org/bind/chemsearch/marvin/MolStructure.jsp?monomerid=50441278

> <Link to Ligand-Target Pair in BindingDB>
http://www.bindingdb.org/jsp/dbsearch/PrimarySearch_ki.jsp?energyterm=kJ/mole&tag=r21&monomerid=50441278&enzyme=Dihydroorotate+dehydrogenase&column=ki&startPg=0&Increment=50&submit=Search

> <PubChem CID>
91898839

> <PubChem SID>
175453595

$$$$

  Mrv2115 07222212352D          

 26 29  0  0  0  0            999 V2000
    3.9934    2.4750    0.0000 O   0  0  0  0  0  0  0  0  0  0  0  0
    3.2789    2.0625    0.0000 C   0  0  0  0  0  0  0  0  0  0  0  0
    2.5645    2.4750    0.0000 O   0  0  0  0  0  0  0  0  0  0  0  0
    3.2789    1.2375    0.0000 C   0  0  0  0  0  0  0  0  0  0  0  0
    3.9934    0.8250    0.0000 C   0  0  0  0  0  0  0  0  0  0  0  0
    3.9934    0.0000    0.0000 C   0  0  0  0  0  0  0  0  0  0  0  0
    3.2789   -0.4125    0.0000 C   0  0  0  0  0  0  0  0  0  0  0  0
    2.5645    0.0000    0.0000 C   0  0  0  0  0  0  0  0  0  0  0  0
    1.7798   -0.2549    0.0000 N   0  0  0  0  0  0  0  0  0  0  0  0
    1.2949    0.4125    0.0000 C   0  0  0  0  0  0  0  0  0  0  0  0
    0.4699    0.4125    0.0000 C   0  0  0  0  0  0  0  0  0  0  0  0
    0.0574   -0.3020    0.0000 C   0  0  0  0  0  0  0  0  0  0  0  0
   -0.7676   -0.3020    0.0000 C   0  0  0  0  0  0  0  0  0  0  0  0
   -1.1801    0.4125    0.0000 C   0  0  0  0  0  0  0  0  0  0  0  0
   -2.0051    0.4125    0.0000 C   0  0  0  0  0  0  0  0  0  0  0  0
   -2.4176   -0.3020    0.0000 C   0  0  0  0  0  0  0  0  0  0  0  0
   -2.0051   -1.0164    0.0000 F   0  0  0  0  0  0  0  0  0  0  0  0
   -3.2426   -0.3020    0.0000 C   0  0  0  0  0  0  0  0  0  0  0  0
   -3.6551    0.4125    0.0000 C   0  0  0  0  0  0  0  0  0  0  0  0
   -3.2426    1.1270    0.0000 C   0  0  0  0  0  0  0  0  0  0  0  0
   -2.4176    1.1270    0.0000 C   0  0  0  0  0  0  0  0  0  0  0  0
   -2.0051    1.8414    0.0000 F   0  0  0  0  0  0  0  0  0  0  0  0
   -0.7676    1.1270    0.0000 C   0  0  0  0  0  0  0  0  0  0  0  0
    0.0574    1.1270    0.0000 C   0  0  0  0  0  0  0  0  0  0  0  0
    1.7798    1.0799    0.0000 N   0  0  0  0  0  0  0  0  0  0  0  0
    2.5645    0.8250    0.0000 C   0  0  0  0  0  0  0  0  0  0  0  0
  1  2  2  0  0  0  0
  2  3  1  0  0  0  0
  2  4  1  0  0  0  0
  4  5  4  0  0  0  0
  5  6  4  0  0  0  0
  6  7  4  0  0  0  0
  7  8  4  0  0  0  0
  8  9  4  0  0  0  0
  9 10  4  0  0  0  0
 10 11  1  0  0  0  0
 11 12  4  0  0  0  0
 12 13  4  0  0  0  0
 13 14  4  0  0  0  0
 14 15  1  0  0  0  0
 15 16  4  0  0  0  0
 16 17  1  0  0  0  0
 16 18  4  0  0  0  0
 18 19  4  0  0  0  0
 19 20  4  0  0  0  0
 20 21  4  0  0  0  0
 15 21  4  0  0  0  0
 21 22  1  0  0  0  0
 14 23  4  0  0  0  0
 23 24  4  0  0  0  0
 11 24  4  0  0  0  0
 10 25  4  0  0  0  0
 25 26  4  0  0  0  0
  4 26  4  0  0  0  0
  8 26  4  0  0  0  0
M  STY  1   1 DAT
M  SAL   1  1  25
M  SDT   1 MRV_IMPLICIT_H                                        
M  SDD   1     0.5304   -0.4125    DR    ALL  0       0  
M  SED   1 IMPL_H1
M  END
> <IC50(uM)>
1.84

> <Outcome>
0.0

> <BindingDB ID>
297778

> <BindingDB MonomerID>
155434

> <BindingDB Ligand Name>
US9006454, I65

> <Curation/DataSource>
US Patent

> <Article DOI>
?

> <PMID>
?

> <Patent Number>
US9006454

> <Authors>
Thunuguntla, SS; Subramanya, H; Kunnam, SR; Sanivaru Vijay, SR; Bingi, C; Kusanur, R; Schwarz, M; Arlt, M

> <Link to Ligand in BindingDB>
http://www.bindingdb.org/bind/chemsearch/marvin/MolStructure.jsp?monomerid=155434

> <Link to Ligand-Target Pair in BindingDB>
http://www.bindingdb.org/jsp/dbsearch/PrimarySearch_ki.jsp?energyterm=kJ/mole&tag=r21&monomerid=155434&enzyme=Dihydroorotate+dehydrogenase&column=ki&startPg=0&Increment=50&submit=Search

> <PubChem CID>
46947186

> <PubChem SID>
253658371

$$$$

  Mrv2115 07222212352D          

 36 39  0  0  0  0            999 V2000
   -3.2083    2.1568    0.0000 C   0  0  0  0  0  0  0  0  0  0  0  0
   -2.7958    1.4423    0.0000 C   0  0  0  0  0  0  0  0  0  0  0  0
   -3.2083    0.7279    0.0000 O   0  0  0  0  0  0  0  0  0  0  0  0
   -2.7958    0.0134    0.0000 C   0  0  0  0  0  0  0  0  0  0  0  0
   -1.9708    0.0134    0.0000 C   0  0  0  0  0  0  0  0  0  0  0  0
   -1.5583   -0.7011    0.0000 C   0  0  0  0  0  0  0  0  0  0  0  0
   -0.7333   -0.7011    0.0000 N   0  0  0  0  0  0  0  0  0  0  0  0
   -0.2483   -1.3685    0.0000 N   0  0  0  0  0  0  0  0  0  0  0  0
    0.5363   -1.1136    0.0000 C   0  0  0  0  0  0  0  0  0  0  0  0
    0.5363   -0.2886    0.0000 N   0  0  0  0  0  0  0  0  0  0  0  0
   -0.2483   -0.0336    0.0000 C   0  0  0  0  0  0  0  0  0  0  0  0
   -0.5033    0.7510    0.0000 O   0  0  0  0  0  0  0  0  0  0  0  0
    1.1813    0.2258    0.0000 C   0  0  0  0  0  0  0  0  0  0  0  0
    1.9856    0.0422    0.0000 C   0  0  0  0  0  0  0  0  0  0  0  0
    2.3436   -0.7011    0.0000 C   0  0  0  0  0  0  0  0  0  0  0  0
    1.9856   -1.4444    0.0000 O   0  0  0  0  0  0  0  0  0  0  0  0
    1.1813   -1.6280    0.0000 C   0  0  0  0  0  0  0  0  0  0  0  0
   -1.9708   -1.4156    0.0000 C   0  0  0  0  0  0  0  0  0  0  0  0
   -1.5583   -2.1300    0.0000 F   0  0  0  0  0  0  0  0  0  0  0  0
   -2.7958   -1.4156    0.0000 C   0  0  0  0  0  0  0  0  0  0  0  0
   -3.2083   -0.7011    0.0000 C   0  0  0  0  0  0  0  0  0  0  0  0
   -4.0333   -0.7011    0.0000 C   0  0  0  0  0  0  0  0  0  0  0  0
   -4.4458    0.0134    0.0000 O   0  0  0  0  0  0  0  0  0  0  0  0
   -4.4458   -1.4156    0.0000 N   0  0  0  0  0  0  0  0  0  0  0  0
   -5.2708   -1.4156    0.0000 C   0  0  0  0  0  0  0  0  0  0  0  0
   -5.6833   -2.1300    0.0000 C   0  0  0  0  0  0  0  0  0  0  0  0
   -5.2708   -2.8445    0.0000 F   0  0  0  0  0  0  0  0  0  0  0  0
   -6.5083   -2.1300    0.0000 C   0  0  0  0  0  0  0  0  0  0  0  0
   -6.9208   -1.4156    0.0000 C   0  0  0  0  0  0  0  0  0  0  0  0
   -6.5083   -0.7011    0.0000 C   0  0  0  0  0  0  0  0  0  0  0  0
   -5.6833   -0.7011    0.0000 C   0  0  0  0  0  0  0  0  0  0  0  0
   -5.2708    0.0134    0.0000 Cl  0  0  0  0  0  0  0  0  0  0  0  0
   -1.9708    1.4423    0.0000 C   0  0  0  0  0  0  0  0  0  0  0  0
   -1.9708    0.6173    0.0000 F   0  0  0  0  0  0  0  0  0  0  0  0
   -1.9708    2.2673    0.0000 F   0  0  0  0  0  0  0  0  0  0  0  0
   -1.1458    1.4423    0.0000 F   0  0  0  0  0  0  0  0  0  0  0  0
  1  2  1  0  0  0  0
  2  3  1  0  0  0  0
  3  4  1  0  0  0  0
  4  5  4  0  0  0  0
  5  6  4  0  0  0  0
  6  7  1  0  0  0  0
  7  8  4  0  0  0  0
  8  9  4  0  0  0  0
  9 10  4  0  0  0  0
 10 11  4  0  0  0  0
  7 11  4  0  0  0  0
 11 12  2  0  0  0  0
 10 13  1  0  0  0  0
 13 14  1  0  0  0  0
 14 15  1  0  0  0  0
 15 16  1  0  0  0  0
 16 17  1  0  0  0  0
  9 17  1  0  0  0  0
  6 18  4  0  0  0  0
 18 19  1  0  0  0  0
 18 20  4  0  0  0  0
 20 21  4  0  0  0  0
  4 21  4  0  0  0  0
 21 22  1  0  0  0  0
 22 23  2  0  0  0  0
 22 24  1  0  0  0  0
 24 25  1  0  0  0  0
 25 26  4  0  0  0  0
 26 27  1  0  0  0  0
 26 28  4  0  0  0  0
 28 29  4  0  0  0  0
 29 30  4  0  0  0  0
 30 31  4  0  0  0  0
 25 31  4  0  0  0  0
 31 32  1  0  0  0  0
  2 33  1  0  0  0  0
 33 34  1  0  0  0  0
 33 35  1  0  0  0  0
 33 36  1  0  0  0  0
M  END
> <IC50(uM)>
0.003

> <Outcome>
1.0

> <BindingDB ID>
1020631

> <BindingDB MonomerID>
490560

> <BindingDB Ligand Name>
N-(2-chloro-6-fluorophenyl)-5-fluoro-4-(3-oxo-6,7-dihydro-3H,5H-[1,2,4]triazolo[3,4-c]-[1,4]oxazepin-2(9H)-yl)-2-{[(2S)-1,1,1-trifluoropropan-2-yl]oxy}benzamide::US10968216, Example 228

> <Curation/DataSource>
US Patent

> <Article DOI>
?

> <PMID>
?

> <Patent Number>
US10968216

> <Authors>
Gradl, SN; Nguyen, D; Eis, K; Gunther, J; Stellfeld, T; Janzer, A; Christian, S; Mueller, T; Sheikh, SE; Zhou, HJ; Zhao, C; Sykes, DB; Ferrara, SJ; Liu, K; Herbert, SA; Merz, C; Niehues, M; Nising, CF; Schafer, M; Zimmermann, K; Knablein, J; Thede, K; Faupel, T

> <Link to Ligand in BindingDB>
http://www.bindingdb.org/bind/chemsearch/marvin/MolStructure.jsp?monomerid=490560

> <Link to Ligand-Target Pair in BindingDB>
http://www.bindingdb.org/jsp/dbsearch/PrimarySearch_ki.jsp?energyterm=kJ/mole&tag=r21&monomerid=490560&enzyme=Dihydroorotate+dehydrogenase&column=ki&startPg=0&Increment=50&submit=Search

> <PubChem CID>
134474160

> <PubChem SID>
447117286

$$$$

  Mrv2115 07222212352D          

 28 30  0  0  0  0            999 V2000
    2.8579   -3.3000    0.0000 O   0  0  0  0  0  0  0  0  0  0  0  0
    2.1434   -2.8875    0.0000 C   0  0  0  0  0  0  0  0  0  0  0  0
    1.4289   -3.3000    0.0000 O   0  0  0  0  0  0  0  0  0  0  0  0
    2.1434   -2.0625    0.0000 C   0  0  0  0  0  0  0  0  0  0  0  0
    1.4289   -1.6500    0.0000 N   0  0  0  0  0  0  0  0  0  0  0  0
    1.4289   -0.8250    0.0000 C   0  0  0  0  0  0  0  0  0  0  0  0
    0.7145   -0.4125    0.0000 O   0  0  0  0  0  0  0  0  0  0  0  0
    2.1434   -0.4125    0.0000 N   0  0  0  0  0  0  0  0  0  0  0  0
    2.8579   -0.8250    0.0000 C   0  0  0  0  0  0  0  0  0  0  0  0
    3.5724   -0.4125    0.0000 O   0  0  0  0  0  0  0  0  0  0  0  0
    2.8579   -1.6500    0.0000 C   0  0  0  0  0  0  0  0  0  0  0  0
    3.5724   -2.0625    0.0000 C   0  0  0  0  0  0  0  0  0  0  0  0
    4.2868   -1.6500    0.0000 C   0  0  0  0  0  0  0  0  0  0  0  0
    5.0013   -2.0625    0.0000 C   0  0  0  0  0  0  0  0  0  0  0  0
    5.7158   -1.6500    0.0000 C   0  0  0  0  0  0  0  0  0  0  0  0
    6.4302   -2.0625    0.0000 C   0  0  0  0  0  0  0  0  0  0  0  0
    7.1447   -1.6500    0.0000 C   0  0  0  0  0  0  0  0  0  0  0  0
    7.8592   -2.0625    0.0000 C   0  0  0  0  0  0  0  0  0  0  0  0
    7.8592   -2.8875    0.0000 C   0  0  0  0  0  0  0  0  0  0  0  0
    8.5737   -3.3000    0.0000 C   0  0  0  0  0  0  0  0  0  0  0  0
    9.2881   -2.8875    0.0000 C   0  0  0  0  0  0  0  0  0  0  0  0
    9.2881   -2.0625    0.0000 O   0  0  0  0  0  0  0  0  0  0  0  0
   10.0026   -3.3000    0.0000 O   0  0  0  0  0  0  0  0  0  0  0  0
    8.5737   -4.1250    0.0000 C   0  0  0  0  0  0  0  0  0  0  0  0
    7.8592   -4.5375    0.0000 C   0  0  0  0  0  0  0  0  0  0  0  0
    7.1447   -4.1250    0.0000 C   0  0  0  0  0  0  0  0  0  0  0  0
    7.1447   -3.3000    0.0000 C   0  0  0  0  0  0  0  0  0  0  0  0
    6.4302   -2.8875    0.0000 C   0  0  0  0  0  0  0  0  0  0  0  0
  1  2  2  0  0  0  0
  2  3  1  0  0  0  0
  2  4  1  0  0  0  0
  4  5  4  0  0  0  0
  5  6  4  0  0  0  0
  6  7  2  0  0  0  0
  6  8  4  0  0  0  0
  8  9  4  0  0  0  0
  9 10  2  0  0  0  0
  9 11  4  0  0  0  0
  4 11  4  0  0  0  0
 11 12  1  0  0  0  0
 12 13  1  0  0  0  0
 13 14  1  0  0  0  0
 14 15  1  0  0  0  0
 15 16  1  0  0  0  0
 16 17  4  0  0  0  0
 17 18  4  0  0  0  0
 18 19  4  0  0  0  0
 19 20  4  0  0  0  0
 20 21  1  0  0  0  0
 21 22  2  0  0  0  0
 21 23  1  0  0  0  0
 20 24  4  0  0  0  0
 24 25  4  0  0  0  0
 25 26  4  0  0  0  0
 26 27  4  0  0  0  0
 19 27  4  0  0  0  0
 27 28  4  0  0  0  0
 16 28  4  0  0  0  0
M  STY  2   1 DAT   2 DAT
M  SAL   1  1   5
M  SDT   1 MRV_IMPLICIT_H                                        
M  SDD   1     0.5304   -0.4125    DR    ALL  0       0  
M  SED   1 IMPL_H1
M  SAL   2  1   8
M  SDT   2 MRV_IMPLICIT_H                                        
M  SDD   2     0.6482   -0.4125    DR    ALL  0       0  
M  SED   2 IMPL_H1
M  END
> <IC50(uM)>
0.152

> <Outcome>
1.0

> <BindingDB ID>
50555221

> <BindingDB MonomerID>
50211697

> <BindingDB Ligand Name>
CHEMBL3981004

> <Curation/DataSource>
ChEMBL

> <Article DOI>
10.1016/j.bmc.2017.01.009

> <PMID>
28118956

> <Patent Number>
?

> <Authors>
Inaoka, DK; Iida, M; Hashimoto, S; Tabuchi, T; Kuranaga, T; Balogun, EO; Honma, T; Tanaka, A; Harada, S; Nara, T; Kita, K; Inoue, M

> <Link to Ligand in BindingDB>
http://www.bindingdb.org/bind/chemsearch/marvin/MolStructure.jsp?monomerid=50211697

> <Link to Ligand-Target Pair in BindingDB>
http://www.bindingdb.org/jsp/dbsearch/PrimarySearch_ki.jsp?energyterm=kJ/mole&tag=r21&monomerid=50211697&enzyme=Dihydroorotate+dehydrogenase&column=ki&startPg=0&Increment=50&submit=Search

> <PubChem CID>
134157042

> <PubChem SID>
375983040

$$$$

  Mrv2115 07222212352D          

 28 32  0  0  0  0            999 V2000
    6.0213   -2.9519    0.0000 N   0  0  0  0  0  0  0  0  0  0  0  0
    5.4692   -3.5650    0.0000 C   0  0  0  0  0  0  0  0  0  0  0  0
    5.7242   -4.3496    0.0000 C   0  0  0  0  0  0  0  0  0  0  0  0
    5.1721   -4.9627    0.0000 C   0  0  0  0  0  0  0  0  0  0  0  0
    4.3652   -4.7911    0.0000 C   0  0  0  0  0  0  0  0  0  0  0  0
    4.1102   -4.0065    0.0000 C   0  0  0  0  0  0  0  0  0  0  0  0
    4.6623   -3.3934    0.0000 C   0  0  0  0  0  0  0  0  0  0  0  0
    4.4073   -2.6088    0.0000 C   0  0  0  0  0  0  0  0  0  0  0  0
    3.6004   -2.4373    0.0000 C   0  0  0  0  0  0  0  0  0  0  0  0
    3.3454   -1.6527    0.0000 C   0  0  0  0  0  0  0  0  0  0  0  0
    3.8974   -1.0396    0.0000 C   0  0  0  0  0  0  0  0  0  0  0  0
    3.6425   -0.2549    0.0000 N   0  0  0  0  0  0  0  0  0  0  0  0
    4.1274    0.4125    0.0000 N   0  0  0  0  0  0  0  0  0  0  0  0
    3.6425    1.0799    0.0000 N   0  0  0  0  0  0  0  0  0  0  0  0
    2.8579    0.8250    0.0000 C   0  0  0  0  0  0  0  0  0  0  0  0
    2.8579    0.0000    0.0000 C   0  0  0  0  0  0  0  0  0  0  0  0
    2.1434   -0.4125    0.0000 C   0  0  0  0  0  0  0  0  0  0  0  0
    2.1434   -1.2375    0.0000 O   0  0  0  0  0  0  0  0  0  0  0  0
    1.4289   -0.0000    0.0000 C   0  0  0  0  0  0  0  0  0  0  0  0
    0.7145   -0.4125    0.0000 C   0  0  0  0  0  0  0  0  0  0  0  0
   -0.0000    0.0000    0.0000 C   0  0  0  0  0  0  0  0  0  0  0  0
    0.0000    0.8250    0.0000 C   0  0  0  0  0  0  0  0  0  0  0  0
    0.7145    1.2375    0.0000 C   0  0  0  0  0  0  0  0  0  0  0  0
    1.4289    0.8250    0.0000 C   0  0  0  0  0  0  0  0  0  0  0  0
    2.1434    1.2375    0.0000 C   0  0  0  0  0  0  0  0  0  0  0  0
    2.1434    2.0625    0.0000 O   0  0  0  0  0  0  0  0  0  0  0  0
    4.7044   -1.2111    0.0000 C   0  0  0  0  0  0  0  0  0  0  0  0
    4.9594   -1.9957    0.0000 C   0  0  0  0  0  0  0  0  0  0  0  0
  1  2  1  0  0  0  0
  2  3  4  0  0  0  0
  3  4  4  0  0  0  0
  4  5  4  0  0  0  0
  5  6  4  0  0  0  0
  6  7  4  0  0  0  0
  2  7  4  0  0  0  0
  7  8  1  0  0  0  0
  8  9  4  0  0  0  0
  9 10  4  0  0  0  0
 10 11  4  0  0  0  0
 11 12  1  0  0  0  0
 12 13  4  0  0  0  0
 13 14  4  0  0  0  0
 14 15  4  0  0  0  0
 15 16  4  0  0  0  0
 12 16  4  0  0  0  0
 16 17  1  0  0  0  0
 17 18  2  0  0  0  0
 17 19  1  0  0  0  0
 19 20  4  0  0  0  0
 20 21  4  0  0  0  0
 21 22  4  0  0  0  0
 22 23  4  0  0  0  0
 23 24  4  0  0  0  0
 19 24  4  0  0  0  0
 24 25  1  0  0  0  0
 15 25  1  0  0  0  0
 25 26  2  0  0  0  0
 11 27  4  0  0  0  0
 27 28  4  0  0  0  0
  8 28  4  0  0  0  0
M  END
> <IC50(uM)>
0.02

> <Outcome>
1.0

> <BindingDB ID>
51338187

> <BindingDB MonomerID>
50541661

> <BindingDB Ligand Name>
CHEMBL4640238

> <Curation/DataSource>
ChEMBL

> <Article DOI>
10.1021/acs.jmedchem.0c00512

> <PMID>
32496056

> <Patent Number>
?

> <Authors>
Zuo, Z; Liu, X; Qian, X; Zeng, T; Sang, N; Liu, H; Zhou, Y; Tao, L; Zhou, X; Su, N; Yu, Y; Chen, Q; Luo, Y; Zhao, Y

> <Link to Ligand in BindingDB>
http://www.bindingdb.org/bind/chemsearch/marvin/MolStructure.jsp?monomerid=50541661

> <Link to Ligand-Target Pair in BindingDB>
http://www.bindingdb.org/jsp/dbsearch/PrimarySearch_ki.jsp?energyterm=kJ/mole&tag=r21&monomerid=50541661&enzyme=Dihydroorotate+dehydrogenase&column=ki&startPg=0&Increment=50&submit=Search

> <PubChem CID>
156015504

> <PubChem SID>
442143224

$$$$

  Mrv2115 07222212352D          

 19 20  0  0  0  0            999 V2000
    0.7145   -1.2375    0.0000 O   0  0  0  0  0  0  0  0  0  0  0  0
    1.4289   -1.6500    0.0000 C   0  0  0  0  0  0  0  0  0  0  0  0
    2.1434   -1.2375    0.0000 O   0  0  0  0  0  0  0  0  0  0  0  0
    1.4289   -2.4750    0.0000 C   0  0  0  0  0  0  0  0  0  0  0  0
    2.1434   -2.8875    0.0000 N   0  0  0  0  0  0  0  0  0  0  0  0
    2.1434   -3.7125    0.0000 C   0  0  0  0  0  0  0  0  0  0  0  0
    2.8579   -4.1250    0.0000 O   0  0  0  0  0  0  0  0  0  0  0  0
    1.4289   -4.1250    0.0000 N   0  0  0  0  0  0  0  0  0  0  0  0
    0.7145   -3.7125    0.0000 C   0  0  0  0  0  0  0  0  0  0  0  0
    0.0000   -4.1250    0.0000 O   0  0  0  0  0  0  0  0  0  0  0  0
    0.7145   -2.8875    0.0000 C   0  0  0  0  0  0  0  0  0  0  0  0
    0.0000   -2.4750    0.0000 C   0  0  0  0  0  0  0  0  0  0  0  0
   -0.7145   -2.8875    0.0000 C   0  0  0  0  0  0  0  0  0  0  0  0
   -1.4289   -2.4750    0.0000 C   0  0  0  0  0  0  0  0  0  0  0  0
   -2.1434   -2.8875    0.0000 C   0  0  0  0  0  0  0  0  0  0  0  0
   -2.8579   -2.4750    0.0000 C   0  0  0  0  0  0  0  0  0  0  0  0
   -2.8579   -1.6500    0.0000 C   0  0  0  0  0  0  0  0  0  0  0  0
   -2.1434   -1.2375    0.0000 C   0  0  0  0  0  0  0  0  0  0  0  0
   -1.4289   -1.6500    0.0000 C   0  0  0  0  0  0  0  0  0  0  0  0
  1  2  2  0  0  0  0
  2  3  1  0  0  0  0
  2  4  1  0  0  0  0
  4  5  4  0  0  0  0
  5  6  4  0  0  0  0
  6  7  2  0  0  0  0
  6  8  4  0  0  0  0
  8  9  4  0  0  0  0
  9 10  2  0  0  0  0
  9 11  4  0  0  0  0
  4 11  4  0  0  0  0
 11 12  1  0  0  0  0
 12 13  1  0  0  0  0
 13 14  1  0  0  0  0
 14 15  4  0  0  0  0
 15 16  4  0  0  0  0
 16 17  4  0  0  0  0
 17 18  4  0  0  0  0
 18 19  4  0  0  0  0
 14 19  4  0  0  0  0
M  STY  2   1 DAT   2 DAT
M  SAL   1  1   5
M  SDT   1 MRV_IMPLICIT_H                                        
M  SDD   1     0.5304   -0.4125    DR    ALL  0       0  
M  SED   1 IMPL_H1
M  SAL   2  1   8
M  SDT   2 MRV_IMPLICIT_H                                        
M  SDD   2     0.6482   -0.4125    DR    ALL  0       0  
M  SED   2 IMPL_H1
M  END
> <IC50(uM)>
5.0

> <Outcome>
0.0

> <BindingDB ID>
50555405

> <BindingDB MonomerID>
50212060

> <BindingDB Ligand Name>
CHEMBL3934806

> <Curation/DataSource>
ChEMBL

> <Article DOI>
10.1016/j.bmc.2017.01.009

> <PMID>
28118956

> <Patent Number>
?

> <Authors>
Inaoka, DK; Iida, M; Hashimoto, S; Tabuchi, T; Kuranaga, T; Balogun, EO; Honma, T; Tanaka, A; Harada, S; Nara, T; Kita, K; Inoue, M

> <Link to Ligand in BindingDB>
http://www.bindingdb.org/bind/chemsearch/marvin/MolStructure.jsp?monomerid=50212060

> <Link to Ligand-Target Pair in BindingDB>
http://www.bindingdb.org/jsp/dbsearch/PrimarySearch_ki.jsp?energyterm=kJ/mole&tag=r21&monomerid=50212060&enzyme=Dihydroorotate+dehydrogenase&column=ki&startPg=0&Increment=50&submit=Search

> <PubChem CID>
134148955

> <PubChem SID>
375983090

$$$$

  Mrv2115 07222212352D          

 36 38  0  0  0  0            999 V2000
    0.7145   -3.7125    0.0000 C   0  0  0  0  0  0  0  0  0  0  0  0
    0.0000   -4.1250    0.0000 C   0  0  0  0  0  0  0  0  0  0  0  0
    0.0000   -4.9500    0.0000 N   0  0  0  0  0  0  0  0  0  0  0  0
   -0.6674   -5.4349    0.0000 C   0  0  0  0  0  0  0  0  0  0  0  0
   -1.4521   -5.1800    0.0000 C   0  0  0  0  0  0  0  0  0  0  0  0
   -1.6236   -4.3730    0.0000 O   0  0  0  0  0  0  0  0  0  0  0  0
   -0.4125   -6.2195    0.0000 N   0  0  0  0  0  0  0  0  0  0  0  0
    0.4125   -6.2195    0.0000 N   0  0  0  0  0  0  0  0  0  0  0  0
    0.8974   -6.8870    0.0000 C   0  0  0  0  0  0  0  0  0  0  0  0
    1.7179   -6.8007    0.0000 C   0  0  0  0  0  0  0  0  0  0  0  0
    2.2028   -7.4682    0.0000 C   0  0  0  0  0  0  0  0  0  0  0  0
    3.0233   -7.3820    0.0000 O   0  0  0  0  0  0  0  0  0  0  0  0
    3.3589   -6.6283    0.0000 C   0  0  0  0  0  0  0  0  0  0  0  0
    2.8739   -5.9608    0.0000 C   0  0  0  0  0  0  0  0  0  0  0  0
    4.1793   -6.5420    0.0000 C   0  0  0  0  0  0  0  0  0  0  0  0
    4.2656   -7.3625    0.0000 F   0  0  0  0  0  0  0  0  0  0  0  0
    4.0931   -5.7216    0.0000 F   0  0  0  0  0  0  0  0  0  0  0  0
    4.9998   -6.4558    0.0000 F   0  0  0  0  0  0  0  0  0  0  0  0
    1.8673   -8.2219    0.0000 C   0  0  0  0  0  0  0  0  0  0  0  0
    2.3522   -8.8893    0.0000 C   0  0  0  0  0  0  0  0  0  0  0  0
    3.1727   -8.8031    0.0000 O   0  0  0  0  0  0  0  0  0  0  0  0
    2.0166   -9.6430    0.0000 N   0  0  0  0  0  0  0  0  0  0  0  0
    2.5016  -10.3104    0.0000 C   0  0  0  0  0  0  0  0  0  0  0  0
    3.3220  -10.2242    0.0000 C   0  0  0  0  0  0  0  0  0  0  0  0
    3.6576   -9.4705    0.0000 C   0  0  0  0  0  0  0  0  0  0  0  0
    3.8070  -10.8916    0.0000 C   0  0  0  0  0  0  0  0  0  0  0  0
    3.4714  -11.6453    0.0000 C   0  0  0  0  0  0  0  0  0  0  0  0
    2.6509  -11.7315    0.0000 N   0  0  0  0  0  0  0  0  0  0  0  0
    2.1660  -11.0641    0.0000 C   0  0  0  0  0  0  0  0  0  0  0  0
    1.3455  -11.1503    0.0000 O   0  0  0  0  0  0  0  0  0  0  0  0
    0.8606  -10.4829    0.0000 C   0  0  0  0  0  0  0  0  0  0  0  0
    1.0468   -8.3081    0.0000 C   0  0  0  0  0  0  0  0  0  0  0  0
    0.5619   -7.6407    0.0000 C   0  0  0  0  0  0  0  0  0  0  0  0
   -0.2586   -7.7269    0.0000 F   0  0  0  0  0  0  0  0  0  0  0  0
    0.6674   -5.4349    0.0000 C   0  0  0  0  0  0  0  0  0  0  0  0
    1.4521   -5.1800    0.0000 O   0  0  0  0  0  0  0  0  0  0  0  0
  1  2  1  0  0  0  0
  2  3  1  0  0  0  0
  3  4  4  0  0  0  0
  4  5  1  0  0  0  0
  5  6  1  0  0  0  0
  4  7  4  0  0  0  0
  7  8  4  0  0  0  0
  8  9  1  0  0  0  0
  9 10  4  0  0  0  0
 10 11  4  0  0  0  0
 11 12  1  0  0  0  0
 12 13  1  0  0  0  0
 13 14  1  0  0  0  0
 13 15  1  0  0  0  0
 15 16  1  0  0  0  0
 15 17  1  0  0  0  0
 15 18  1  0  0  0  0
 11 19  4  0  0  0  0
 19 20  1  0  0  0  0
 20 21  2  0  0  0  0
 20 22  1  0  0  0  0
 22 23  1  0  0  0  0
 23 24  4  0  0  0  0
 24 25  1  0  0  0  0
 24 26  4  0  0  0  0
 26 27  4  0  0  0  0
 27 28  4  0  0  0  0
 28 29  4  0  0  0  0
 23 29  4  0  0  0  0
 29 30  1  0  0  0  0
 30 31  1  0  0  0  0
 19 32  4  0  0  0  0
 32 33  4  0  0  0  0
  9 33  4  0  0  0  0
 33 34  1  0  0  0  0
  8 35  4  0  0  0  0
  3 35  4  0  0  0  0
 35 36  2  0  0  0  0
M  END
> <IC50(uM)>
0.019

> <Outcome>
1.0

> <BindingDB ID>
1098736; 972582

> <BindingDB MonomerID>
470458

> <BindingDB Ligand Name>
4-[4-ethyl-3-(hydroxymethyl)-5-oxo-4,5-dihydro-1H-1,2,4-triazol-1-yl]-5-fluoro-N-(2-methoxy-4-methylpyridin-3-yl)-2-{[(2S)-1,1,1-trifluoropropan-2-yl]oxy}benzamide::US10815215, Example 124::US11130745, Example 124; 4-[4-ethyl-3-(hydroxymethyl)-5-oxo-4,5-dihydro-1H-1,2,4-triazol-1-yl]-5-fluoro-N-(2-methoxy-4-methylpyridin-3-yl)-2-{[(2S)-1,1,1-trifluoropropan-2-yl]oxy}benzamide::US10815215, Example 124

> <Curation/DataSource>
US Patent

> <Article DOI>
?

> <PMID>
?

> <Patent Number>
US11130745; US10815215

> <Authors>
Gradl, SN; Nguyen, D; Eis, K; Gunther, J; Stellfeld, T; Janzer, A; Christian, S; Muller, T; Sheikh, SE; Sykes, DB; Ferrara, SJ; Krober, M; Merz, C; Niehues, M; Schafer, M; Zimmermann, K; Nising, CF; Gradl, SN; Nguyen, D; Eis, K; Gunther, J; Stellfeld, T; Janzer, A; Christian, S; Muller, T; Sheikh, SE; Zhou, HJ; Zhao, C; Sykes, DB; Ferrara, SJ; Liu, K; Krober, M; Merz, C; Niehues, M; Schafer, M; Zimmermann, K; Nising, CF

> <Link to Ligand in BindingDB>
http://www.bindingdb.org/bind/chemsearch/marvin/MolStructure.jsp?monomerid=470458

> <Link to Ligand-Target Pair in BindingDB>
http://www.bindingdb.org/jsp/dbsearch/PrimarySearch_ki.jsp?energyterm=kJ/mole&tag=r21&monomerid=470458&enzyme=Dihydroorotate+dehydrogenase&column=ki&startPg=0&Increment=50&submit=Search

> <PubChem CID>
134470259

> <PubChem SID>
441609635

$$$$

  Mrv2115 07222212352D          

 36 39  0  0  0  0            999 V2000
    0.6964   -1.0193    0.0000 C   0  0  0  0  0  0  0  0  0  0  0  0
    0.3608   -1.7730    0.0000 C   0  0  0  0  0  0  0  0  0  0  0  0
   -0.4597   -1.8592    0.0000 O   0  0  0  0  0  0  0  0  0  0  0  0
   -0.7952   -2.6129    0.0000 C   0  0  0  0  0  0  0  0  0  0  0  0
   -0.3103   -3.2804    0.0000 C   0  0  0  0  0  0  0  0  0  0  0  0
   -0.6459   -4.0340    0.0000 C   0  0  0  0  0  0  0  0  0  0  0  0
   -0.1610   -4.7015    0.0000 N   0  0  0  0  0  0  0  0  0  0  0  0
    0.6640   -4.7015    0.0000 N   0  0  0  0  0  0  0  0  0  0  0  0
    0.9190   -5.4861    0.0000 C   0  0  0  0  0  0  0  0  0  0  0  0
    1.7036   -5.7410    0.0000 C   0  0  0  0  0  0  0  0  0  0  0  0
    1.8751   -6.5480    0.0000 O   0  0  0  0  0  0  0  0  0  0  0  0
    0.2515   -5.9710    0.0000 N   0  0  0  0  0  0  0  0  0  0  0  0
    0.2515   -6.7960    0.0000 C   0  0  0  0  0  0  0  0  0  0  0  0
    0.6640   -7.5105    0.0000 C   0  0  0  0  0  0  0  0  0  0  0  0
   -0.1610   -7.5105    0.0000 C   0  0  0  0  0  0  0  0  0  0  0  0
   -0.4159   -5.4861    0.0000 C   0  0  0  0  0  0  0  0  0  0  0  0
   -1.2005   -5.7410    0.0000 O   0  0  0  0  0  0  0  0  0  0  0  0
   -1.4664   -4.1203    0.0000 C   0  0  0  0  0  0  0  0  0  0  0  0
   -1.8019   -4.8739    0.0000 F   0  0  0  0  0  0  0  0  0  0  0  0
   -1.9513   -3.4528    0.0000 C   0  0  0  0  0  0  0  0  0  0  0  0
   -1.6157   -2.6992    0.0000 C   0  0  0  0  0  0  0  0  0  0  0  0
   -2.1006   -2.0317    0.0000 C   0  0  0  0  0  0  0  0  0  0  0  0
   -1.7651   -1.2780    0.0000 O   0  0  0  0  0  0  0  0  0  0  0  0
   -2.9211   -2.1180    0.0000 N   0  0  0  0  0  0  0  0  0  0  0  0
   -3.4060   -1.4505    0.0000 C   0  0  0  0  0  0  0  0  0  0  0  0
   -4.2265   -1.5367    0.0000 C   0  0  0  0  0  0  0  0  0  0  0  0
   -4.5621   -2.2904    0.0000 F   0  0  0  0  0  0  0  0  0  0  0  0
   -4.7114   -0.8693    0.0000 C   0  0  0  0  0  0  0  0  0  0  0  0
   -4.3759   -0.1156    0.0000 C   0  0  0  0  0  0  0  0  0  0  0  0
   -3.5554   -0.0294    0.0000 C   0  0  0  0  0  0  0  0  0  0  0  0
   -3.0705   -0.6968    0.0000 C   0  0  0  0  0  0  0  0  0  0  0  0
   -2.2500   -0.6106    0.0000 Cl  0  0  0  0  0  0  0  0  0  0  0  0
    0.8457   -2.4404    0.0000 C   0  0  0  0  0  0  0  0  0  0  0  0
    0.1783   -2.9254    0.0000 F   0  0  0  0  0  0  0  0  0  0  0  0
    1.5132   -1.9555    0.0000 F   0  0  0  0  0  0  0  0  0  0  0  0
    1.3306   -3.1079    0.0000 F   0  0  0  0  0  0  0  0  0  0  0  0
  1  2  1  0  0  0  0
  2  3  1  0  0  0  0
  3  4  1  0  0  0  0
  4  5  4  0  0  0  0
  5  6  4  0  0  0  0
  6  7  1  0  0  0  0
  7  8  4  0  0  0  0
  8  9  4  0  0  0  0
  9 10  1  0  0  0  0
 10 11  1  0  0  0  0
  9 12  4  0  0  0  0
 12 13  1  0  0  0  0
 13 14  1  0  0  0  0
 14 15  1  0  0  0  0
 13 15  1  0  0  0  0
 12 16  4  0  0  0  0
  7 16  4  0  0  0  0
 16 17  2  0  0  0  0
  6 18  4  0  0  0  0
 18 19  1  0  0  0  0
 18 20  4  0  0  0  0
 20 21  4  0  0  0  0
  4 21  4  0  0  0  0
 21 22  1  0  0  0  0
 22 23  2  0  0  0  0
 22 24  1  0  0  0  0
 24 25  1  0  0  0  0
 25 26  4  0  0  0  0
 26 27  1  0  0  0  0
 26 28  4  0  0  0  0
 28 29  4  0  0  0  0
 29 30  4  0  0  0  0
 30 31  4  0  0  0  0
 25 31  4  0  0  0  0
 31 32  1  0  0  0  0
  2 33  1  0  0  0  0
 33 34  1  0  0  0  0
 33 35  1  0  0  0  0
 33 36  1  0  0  0  0
M  END
> <IC50(uM)>
0.017

> <Outcome>
1.0

> <BindingDB ID>
1098797; 972643

> <BindingDB MonomerID>
470521

> <BindingDB Ligand Name>
N-(2-chloro-6-fluorophenyl)-4-[4-cyclopropyl-3-(hydroxymethyl)-5-oxo-4,5-dihydro-1H-1,2,4-triazol-1-yl]-5-fluoro-2-{[(2S)-1,1,1-trifluoropropan-2-yl]oxy}benzamide::US10815215, Example 181::US11130745, Example 181; N-(2-chloro-6-fluorophenyl)-4-[4-cyclopropyl-3-(hydroxymethyl)-5-oxo-4,5-dihydro-1H-1,2,4-triazol-1-yl]-5-fluoro-2-{[(2S)-1,1,1-trifluoropropan-2-yl]oxy}benzamide::US10815215, Example 181

> <Curation/DataSource>
US Patent

> <Article DOI>
?

> <PMID>
?

> <Patent Number>
US11130745; US10815215

> <Authors>
Gradl, SN; Nguyen, D; Eis, K; Gunther, J; Stellfeld, T; Janzer, A; Christian, S; Muller, T; Sheikh, SE; Sykes, DB; Ferrara, SJ; Krober, M; Merz, C; Niehues, M; Schafer, M; Zimmermann, K; Nising, CF; Gradl, SN; Nguyen, D; Eis, K; Gunther, J; Stellfeld, T; Janzer, A; Christian, S; Muller, T; Sheikh, SE; Zhou, HJ; Zhao, C; Sykes, DB; Ferrara, SJ; Liu, K; Krober, M; Merz, C; Niehues, M; Schafer, M; Zimmermann, K; Nising, CF

> <Link to Ligand in BindingDB>
http://www.bindingdb.org/bind/chemsearch/marvin/MolStructure.jsp?monomerid=470521

> <Link to Ligand-Target Pair in BindingDB>
http://www.bindingdb.org/jsp/dbsearch/PrimarySearch_ki.jsp?energyterm=kJ/mole&tag=r21&monomerid=470521&enzyme=Dihydroorotate+dehydrogenase&column=ki&startPg=0&Increment=50&submit=Search

> <PubChem CID>
134470310

> <PubChem SID>
441609697

$$$$

  Mrv2115 07222212352D          

 38 42  0  0  0  0            999 V2000
   -8.0534   -2.1269    0.0000 C   0  0  0  0  0  0  0  0  0  0  0  0
   -7.6409   -1.4124    0.0000 O   0  0  0  0  0  0  0  0  0  0  0  0
   -6.8159   -1.4124    0.0000 C   0  0  0  0  0  0  0  0  0  0  0  0
   -6.4034   -0.6979    0.0000 C   0  0  0  0  0  0  0  0  0  0  0  0
   -5.5784   -0.6979    0.0000 C   0  0  0  0  0  0  0  0  0  0  0  0
   -5.1659    0.0165    0.0000 C   0  0  0  0  0  0  0  0  0  0  0  0
   -5.1659   -1.4124    0.0000 C   0  0  0  0  0  0  0  0  0  0  0  0
   -4.3409   -1.4124    0.0000 N   0  0  0  0  0  0  0  0  0  0  0  0
   -3.9284   -0.6979    0.0000 C   0  0  0  0  0  0  0  0  0  0  0  0
   -4.3409    0.0165    0.0000 O   0  0  0  0  0  0  0  0  0  0  0  0
   -3.1034   -0.6979    0.0000 C   0  0  0  0  0  0  0  0  0  0  0  0
   -2.6909    0.0165    0.0000 C   0  0  0  0  0  0  0  0  0  0  0  0
   -1.8659    0.0165    0.0000 C   0  0  0  0  0  0  0  0  0  0  0  0
   -1.4534    0.7310    0.0000 F   0  0  0  0  0  0  0  0  0  0  0  0
   -1.4534   -0.6979    0.0000 C   0  0  0  0  0  0  0  0  0  0  0  0
   -0.6284   -0.6979    0.0000 N   0  0  0  0  0  0  0  0  0  0  0  0
   -0.1435   -1.3654    0.0000 N   0  0  0  0  0  0  0  0  0  0  0  0
    0.6411   -1.1104    0.0000 C   0  0  0  0  0  0  0  0  0  0  0  0
    0.6411   -0.2854    0.0000 N   0  0  0  0  0  0  0  0  0  0  0  0
   -0.1435   -0.0305    0.0000 C   0  0  0  0  0  0  0  0  0  0  0  0
   -0.3984    0.7541    0.0000 O   0  0  0  0  0  0  0  0  0  0  0  0
    1.3556    0.1271    0.0000 C   0  0  0  0  0  0  0  0  0  0  0  0
    2.0701   -0.2854    0.0000 C   0  0  0  0  0  0  0  0  0  0  0  0
    2.0701   -1.1104    0.0000 C   0  0  0  0  0  0  0  0  0  0  0  0
    1.3556   -1.5229    0.0000 C   0  0  0  0  0  0  0  0  0  0  0  0
   -1.8659   -1.4124    0.0000 C   0  0  0  0  0  0  0  0  0  0  0  0
   -2.6909   -1.4124    0.0000 C   0  0  0  0  0  0  0  0  0  0  0  0
   -3.1034   -2.1269    0.0000 O   0  0  0  0  0  0  0  0  0  0  0  0
   -2.6909   -2.8414    0.0000 C   0  0  0  0  0  0  0  0  0  0  0  0
   -1.8659   -2.8414    0.0000 C   0  0  0  0  0  0  0  0  0  0  0  0
   -3.1034   -3.5558    0.0000 C   0  0  0  0  0  0  0  0  0  0  0  0
   -2.6909   -4.2703    0.0000 C   0  0  0  0  0  0  0  0  0  0  0  0
   -3.1034   -4.9848    0.0000 C   0  0  0  0  0  0  0  0  0  0  0  0
   -3.9284   -4.9848    0.0000 C   0  0  0  0  0  0  0  0  0  0  0  0
   -4.3409   -4.2703    0.0000 C   0  0  0  0  0  0  0  0  0  0  0  0
   -3.9284   -3.5558    0.0000 C   0  0  0  0  0  0  0  0  0  0  0  0
   -5.5784   -2.1269    0.0000 C   0  0  0  0  0  0  0  0  0  0  0  0
   -6.4034   -2.1269    0.0000 N   0  0  0  0  0  0  0  0  0  0  0  0
  1  2  1  0  0  0  0
  2  3  1  0  0  0  0
  3  4  4  0  0  0  0
  4  5  4  0  0  0  0
  5  6  1  0  0  0  0
  5  7  4  0  0  0  0
  7  8  1  0  0  0  0
  8  9  1  0  0  0  0
  9 10  2  0  0  0  0
  9 11  1  0  0  0  0
 11 12  4  0  0  0  0
 12 13  4  0  0  0  0
 13 14  1  0  0  0  0
 13 15  4  0  0  0  0
 15 16  1  0  0  0  0
 16 17  4  0  0  0  0
 17 18  4  0  0  0  0
 18 19  4  0  0  0  0
 19 20  4  0  0  0  0
 16 20  4  0  0  0  0
 20 21  2  0  0  0  0
 19 22  1  0  0  0  0
 22 23  1  0  0  0  0
 23 24  1  0  0  0  0
 24 25  1  0  0  0  0
 18 25  1  0  0  0  0
 15 26  4  0  0  0  0
 26 27  4  0  0  0  0
 11 27  4  0  0  0  0
 27 28  1  0  0  0  0
 28 29  1  0  0  0  0
 29 30  1  0  0  0  0
 29 31  1  0  0  0  0
 31 32  1  0  0  0  0
 32 33  1  0  0  0  0
 33 34  1  0  0  0  0
 34 35  1  0  0  0  0
 35 36  1  0  0  0  0
 31 36  1  0  0  0  0
  7 37  4  0  0  0  0
 37 38  4  0  0  0  0
  3 38  4  0  0  0  0
M  END
> <IC50(uM)>
0.0032999999999999995

> <Outcome>
1.0

> <BindingDB ID>
1020500

> <BindingDB MonomerID>
490448

> <BindingDB Ligand Name>
2-[(1S)-1-cyclohexylethoxy]-5-fluoro-N-(6-methoxy-4-methylpyridin-3-yl)-4-(3-oxo-5,6,7,8-tetrahydro[1,2,4]triazolo[4,3-a]pyridin-2(3H)-yl)benzamide::US10968216, Example 116

> <Curation/DataSource>
US Patent

> <Article DOI>
?

> <PMID>
?

> <Patent Number>
US10968216

> <Authors>
Gradl, SN; Nguyen, D; Eis, K; Gunther, J; Stellfeld, T; Janzer, A; Christian, S; Mueller, T; Sheikh, SE; Zhou, HJ; Zhao, C; Sykes, DB; Ferrara, SJ; Liu, K; Herbert, SA; Merz, C; Niehues, M; Nising, CF; Schafer, M; Zimmermann, K; Knablein, J; Thede, K; Faupel, T

> <Link to Ligand in BindingDB>
http://www.bindingdb.org/bind/chemsearch/marvin/MolStructure.jsp?monomerid=490448

> <Link to Ligand-Target Pair in BindingDB>
http://www.bindingdb.org/jsp/dbsearch/PrimarySearch_ki.jsp?energyterm=kJ/mole&tag=r21&monomerid=490448&enzyme=Dihydroorotate+dehydrogenase&column=ki&startPg=0&Increment=50&submit=Search

> <PubChem CID>
134474330

> <PubChem SID>
447117175

$$$$

  Mrv2115 07222212352D          

 36 39  0  0  0  0            999 V2000
   -0.6284    2.1599    0.0000 C   0  0  0  0  0  0  0  0  0  0  0  0
   -1.4534    2.1599    0.0000 C   0  0  0  0  0  0  0  0  0  0  0  0
   -1.8659    1.4455    0.0000 C   0  0  0  0  0  0  0  0  0  0  0  0
   -2.6909    1.4455    0.0000 C   0  0  0  0  0  0  0  0  0  0  0  0
   -3.1034    2.1599    0.0000 C   0  0  0  0  0  0  0  0  0  0  0  0
   -3.1034    0.7310    0.0000 O   0  0  0  0  0  0  0  0  0  0  0  0
   -2.6909    0.0165    0.0000 C   0  0  0  0  0  0  0  0  0  0  0  0
   -1.8659    0.0165    0.0000 C   0  0  0  0  0  0  0  0  0  0  0  0
   -1.4534   -0.6979    0.0000 C   0  0  0  0  0  0  0  0  0  0  0  0
   -0.6284   -0.6979    0.0000 N   0  0  0  0  0  0  0  0  0  0  0  0
   -0.1435   -1.3654    0.0000 N   0  0  0  0  0  0  0  0  0  0  0  0
    0.6411   -1.1104    0.0000 C   0  0  0  0  0  0  0  0  0  0  0  0
    0.6411   -0.2854    0.0000 N   0  0  0  0  0  0  0  0  0  0  0  0
   -0.1435   -0.0305    0.0000 C   0  0  0  0  0  0  0  0  0  0  0  0
   -0.3984    0.7541    0.0000 O   0  0  0  0  0  0  0  0  0  0  0  0
    1.3556    0.1271    0.0000 C   0  0  0  0  0  0  0  0  0  0  0  0
    2.0701   -0.2854    0.0000 C   0  0  0  0  0  0  0  0  0  0  0  0
    2.0701   -1.1104    0.0000 C   0  0  0  0  0  0  0  0  0  0  0  0
    1.3556   -1.5229    0.0000 C   0  0  0  0  0  0  0  0  0  0  0  0
   -1.8659   -1.4124    0.0000 C   0  0  0  0  0  0  0  0  0  0  0  0
   -1.4534   -2.1269    0.0000 F   0  0  0  0  0  0  0  0  0  0  0  0
   -2.6909   -1.4124    0.0000 C   0  0  0  0  0  0  0  0  0  0  0  0
   -3.1034   -0.6979    0.0000 C   0  0  0  0  0  0  0  0  0  0  0  0
   -3.9284   -0.6979    0.0000 C   0  0  0  0  0  0  0  0  0  0  0  0
   -4.3409   -1.4124    0.0000 O   0  0  0  0  0  0  0  0  0  0  0  0
   -4.3409    0.0165    0.0000 N   0  0  0  0  0  0  0  0  0  0  0  0
   -5.1659    0.0165    0.0000 C   0  0  0  0  0  0  0  0  0  0  0  0
   -5.5784   -0.6979    0.0000 C   0  0  0  0  0  0  0  0  0  0  0  0
   -6.4034   -0.6979    0.0000 C   0  0  0  0  0  0  0  0  0  0  0  0
   -6.8159    0.0165    0.0000 C   0  0  0  0  0  0  0  0  0  0  0  0
   -6.4034    0.7310    0.0000 C   0  0  0  0  0  0  0  0  0  0  0  0
   -6.8159    1.4455    0.0000 C   0  0  0  0  0  0  0  0  0  0  0  0
   -7.2284    2.1599    0.0000 F   0  0  0  0  0  0  0  0  0  0  0  0
   -6.1015    1.8580    0.0000 F   0  0  0  0  0  0  0  0  0  0  0  0
   -7.5304    1.0330    0.0000 F   0  0  0  0  0  0  0  0  0  0  0  0
   -5.5784    0.7310    0.0000 C   0  0  0  0  0  0  0  0  0  0  0  0
  1  2  1  0  0  0  0
  2  3  1  0  0  0  0
  3  4  1  0  0  0  0
  4  5  1  0  0  0  0
  4  6  1  0  0  0  0
  6  7  1  0  0  0  0
  7  8  4  0  0  0  0
  8  9  4  0  0  0  0
  9 10  1  0  0  0  0
 10 11  4  0  0  0  0
 11 12  4  0  0  0  0
 12 13  4  0  0  0  0
 13 14  4  0  0  0  0
 10 14  4  0  0  0  0
 14 15  2  0  0  0  0
 13 16  1  0  0  0  0
 16 17  1  0  0  0  0
 17 18  1  0  0  0  0
 18 19  1  0  0  0  0
 12 19  1  0  0  0  0
  9 20  4  0  0  0  0
 20 21  1  0  0  0  0
 20 22  4  0  0  0  0
 22 23  4  0  0  0  0
  7 23  4  0  0  0  0
 23 24  1  0  0  0  0
 24 25  2  0  0  0  0
 24 26  1  0  0  0  0
 26 27  1  0  0  0  0
 27 28  4  0  0  0  0
 28 29  4  0  0  0  0
 29 30  4  0  0  0  0
 30 31  4  0  0  0  0
 31 32  1  0  0  0  0
 32 33  1  0  0  0  0
 32 34  1  0  0  0  0
 32 35  1  0  0  0  0
 31 36  4  0  0  0  0
 27 36  4  0  0  0  0
M  END
> <IC50(uM)>
0.1315

> <Outcome>
1.0

> <BindingDB ID>
1020378; 1020377

> <BindingDB MonomerID>
490335

> <BindingDB Ligand Name>
5-fluoro-4-(3-oxo-5,6,7,8-tetrahydro[1,2,4]triazolo[4,3-a]pyridin-2(3H)-yl)-2-[(2S)-pentan-2-yloxy]-N-[3-(trifluoromethyl)phenyl]benzamide::US10968216, Example 3

> <Curation/DataSource>
US Patent

> <Article DOI>
?

> <PMID>
?

> <Patent Number>
US10968216

> <Authors>
Gradl, SN; Nguyen, D; Eis, K; Gunther, J; Stellfeld, T; Janzer, A; Christian, S; Mueller, T; Sheikh, SE; Zhou, HJ; Zhao, C; Sykes, DB; Ferrara, SJ; Liu, K; Herbert, SA; Merz, C; Niehues, M; Nising, CF; Schafer, M; Zimmermann, K; Knablein, J; Thede, K; Faupel, T

> <Link to Ligand in BindingDB>
http://www.bindingdb.org/bind/chemsearch/marvin/MolStructure.jsp?monomerid=490335

> <Link to Ligand-Target Pair in BindingDB>
http://www.bindingdb.org/jsp/dbsearch/PrimarySearch_ki.jsp?energyterm=kJ/mole&tag=r21&monomerid=490335&enzyme=Dihydroorotate+dehydrogenase&column=ki&startPg=0&Increment=50&submit=Search

> <PubChem CID>
134474287

> <PubChem SID>
447117062

$$$$

  Mrv2115 07222212352D          

 27 30  0  0  0  0            999 V2000
   -0.9355    1.8414    0.0000 O   0  0  0  0  0  0  0  0  0  0  0  0
   -1.3480    2.5559    0.0000 C   0  0  0  0  0  0  0  0  0  0  0  0
   -2.1730    2.5559    0.0000 O   0  0  0  0  0  0  0  0  0  0  0  0
   -0.9355    3.2704    0.0000 C   0  0  0  0  0  0  0  0  0  0  0  0
   -1.3480    3.9849    0.0000 N   0  0  0  0  0  0  0  0  0  0  0  0
   -0.9355    4.6993    0.0000 C   0  0  0  0  0  0  0  0  0  0  0  0
   -1.3480    5.4138    0.0000 O   0  0  0  0  0  0  0  0  0  0  0  0
   -0.1105    4.6993    0.0000 N   0  0  0  0  0  0  0  0  0  0  0  0
    0.3020    3.9849    0.0000 C   0  0  0  0  0  0  0  0  0  0  0  0
    1.1270    3.9849    0.0000 O   0  0  0  0  0  0  0  0  0  0  0  0
   -0.1105    3.2704    0.0000 C   0  0  0  0  0  0  0  0  0  0  0  0
    0.3020    2.5559    0.0000 C   0  0  0  0  0  0  0  0  0  0  0  0
    1.1270    2.5559    0.0000 C   0  0  0  0  0  0  0  0  0  0  0  0
    1.5395    1.8414    0.0000 C   0  0  0  0  0  0  0  0  0  0  0  0
    2.3645    1.8414    0.0000 C   0  0  0  0  0  0  0  0  0  0  0  0
    2.7770    1.1270    0.0000 C   0  0  0  0  0  0  0  0  0  0  0  0
    3.6020    1.1270    0.0000 C   0  0  0  0  0  0  0  0  0  0  0  0
    4.0145    0.4125    0.0000 C   0  0  0  0  0  0  0  0  0  0  0  0
    3.6020   -0.3020    0.0000 C   0  0  0  0  0  0  0  0  0  0  0  0
    2.7770   -0.3020    0.0000 C   0  0  0  0  0  0  0  0  0  0  0  0
    2.3645    0.4125    0.0000 C   0  0  0  0  0  0  0  0  0  0  0  0
    1.5395    0.4125    0.0000 C   0  0  0  0  0  0  0  0  0  0  0  0
    1.1270   -0.3020    0.0000 C   0  0  0  0  0  0  0  0  0  0  0  0
    0.3020   -0.3020    0.0000 C   0  0  0  0  0  0  0  0  0  0  0  0
   -0.1105    0.4125    0.0000 C   0  0  0  0  0  0  0  0  0  0  0  0
    0.3020    1.1270    0.0000 C   0  0  0  0  0  0  0  0  0  0  0  0
    1.1270    1.1270    0.0000 C   0  0  0  0  0  0  0  0  0  0  0  0
  1  2  2  0  0  0  0
  2  3  1  0  0  0  0
  2  4  1  0  0  0  0
  4  5  4  0  0  0  0
  5  6  4  0  0  0  0
  6  7  2  0  0  0  0
  6  8  4  0  0  0  0
  8  9  4  0  0  0  0
  9 10  2  0  0  0  0
  9 11  4  0  0  0  0
  4 11  4  0  0  0  0
 11 12  1  0  0  0  0
 12 13  1  0  0  0  0
 13 14  1  0  0  0  0
 14 15  4  0  0  0  0
 15 16  4  0  0  0  0
 16 17  4  0  0  0  0
 17 18  4  0  0  0  0
 18 19  4  0  0  0  0
 19 20  4  0  0  0  0
 20 21  4  0  0  0  0
 16 21  4  0  0  0  0
 21 22  4  0  0  0  0
 22 23  4  0  0  0  0
 23 24  4  0  0  0  0
 24 25  4  0  0  0  0
 25 26  4  0  0  0  0
 26 27  4  0  0  0  0
 14 27  4  0  0  0  0
 22 27  4  0  0  0  0
M  STY  2   1 DAT   2 DAT
M  SAL   1  1   5
M  SDT   1 MRV_IMPLICIT_H                                        
M  SDD   1     0.5304   -0.4125    DR    ALL  0       0  
M  SED   1 IMPL_H1
M  SAL   2  1   8
M  SDT   2 MRV_IMPLICIT_H                                        
M  SDD   2     0.5304   -0.4125    DR    ALL  0       0  
M  SED   2 IMPL_H1
M  END
> <IC50(uM)>
0.0040999999999999995

> <Outcome>
1.0

> <BindingDB ID>
50555341

> <BindingDB MonomerID>
50211940

> <BindingDB Ligand Name>
CHEMBL3966747

> <Curation/DataSource>
ChEMBL

> <Article DOI>
10.1016/j.bmc.2017.01.009

> <PMID>
28118956

> <Patent Number>
?

> <Authors>
Inaoka, DK; Iida, M; Hashimoto, S; Tabuchi, T; Kuranaga, T; Balogun, EO; Honma, T; Tanaka, A; Harada, S; Nara, T; Kita, K; Inoue, M

> <Link to Ligand in BindingDB>
http://www.bindingdb.org/bind/chemsearch/marvin/MolStructure.jsp?monomerid=50211940

> <Link to Ligand-Target Pair in BindingDB>
http://www.bindingdb.org/jsp/dbsearch/PrimarySearch_ki.jsp?energyterm=kJ/mole&tag=r21&monomerid=50211940&enzyme=Dihydroorotate+dehydrogenase&column=ki&startPg=0&Increment=50&submit=Search

> <PubChem CID>
134150906

> <PubChem SID>
104088018

$$$$

  Mrv2115 07222212352D          

 22 24  0  0  0  0            999 V2000
    1.4289   -2.4750    0.0000 C   0  0  0  0  0  0  0  0  0  0  0  0
    1.4289   -1.6500    0.0000 C   0  0  0  0  0  0  0  0  0  0  0  0
    0.7145   -1.2375    0.0000 C   0  0  0  0  0  0  0  0  0  0  0  0
    0.7145   -0.4125    0.0000 C   0  0  0  0  0  0  0  0  0  0  0  0
    1.4289    0.0000    0.0000 C   0  0  0  0  0  0  0  0  0  0  0  0
    2.1434   -0.4125    0.0000 C   0  0  0  0  0  0  0  0  0  0  0  0
    2.8579    0.0000    0.0000 N   0  0  0  0  0  0  0  0  0  0  0  0
    3.5724   -0.4125    0.0000 C   0  0  0  0  0  0  0  0  0  0  0  0
    4.2868   -0.0000    0.0000 C   0  0  0  0  0  0  0  0  0  0  0  0
    4.2868    0.8250    0.0000 C   0  0  0  0  0  0  0  0  0  0  0  0
    5.0013    1.2375    0.0000 C   0  0  0  0  0  0  0  0  0  0  0  0
    5.7158    0.8250    0.0000 C   0  0  0  0  0  0  0  0  0  0  0  0
    6.4302    1.2375    0.0000 Cl  0  0  0  0  0  0  0  0  0  0  0  0
    5.7158   -0.0000    0.0000 C   0  0  0  0  0  0  0  0  0  0  0  0
    5.0013   -0.4125    0.0000 C   0  0  0  0  0  0  0  0  0  0  0  0
    3.5724   -1.2375    0.0000 C   0  0  0  0  0  0  0  0  0  0  0  0
    4.2868   -1.6500    0.0000 O   0  0  0  0  0  0  0  0  0  0  0  0
    2.8579   -1.6500    0.0000 C   0  0  0  0  0  0  0  0  0  0  0  0
    2.8579   -2.4750    0.0000 C   0  0  0  0  0  0  0  0  0  0  0  0
    2.1434   -2.8875    0.0000 O   0  0  0  0  0  0  0  0  0  0  0  0
    3.5724   -2.8875    0.0000 O   0  0  0  0  0  0  0  0  0  0  0  0
    2.1434   -1.2375    0.0000 C   0  0  0  0  0  0  0  0  0  0  0  0
  1  2  1  0  0  0  0
  2  3  4  0  0  0  0
  3  4  4  0  0  0  0
  4  5  4  0  0  0  0
  5  6  4  0  0  0  0
  6  7  4  0  0  0  0
  7  8  4  0  0  0  0
  8  9  1  0  0  0  0
  9 10  4  0  0  0  0
 10 11  4  0  0  0  0
 11 12  4  0  0  0  0
 12 13  1  0  0  0  0
 12 14  4  0  0  0  0
 14 15  4  0  0  0  0
  9 15  4  0  0  0  0
  8 16  4  0  0  0  0
 16 17  1  0  0  0  0
 16 18  4  0  0  0  0
 18 19  1  0  0  0  0
 19 20  2  0  0  0  0
 19 21  1  0  0  0  0
 18 22  4  0  0  0  0
  2 22  4  0  0  0  0
  6 22  4  0  0  0  0
M  END
> <IC50(uM)>
51.0

> <Outcome>
0.0

> <BindingDB ID>
50841853

> <BindingDB MonomerID>
50201898

> <BindingDB Ligand Name>
2-(4-chlorophenyl)-3-hydroxy-5-methylquinoline-4-carboxylicacid::CHEMBL217919

> <Curation/DataSource>
ChEMBL

> <Article DOI>
10.1021/jm0602256

> <PMID>
17201408

> <Patent Number>
?

> <Authors>
Kaila, N; Janz, K; DeBernardo, S; Bedard, PW; Camphausen, RT; Tam, S; Tsao, DH; Keith, JC; Nickerson-Nutter, C; Shilling, A; Young-Sciame, R; Wang, Q

> <Link to Ligand in BindingDB>
http://www.bindingdb.org/bind/chemsearch/marvin/MolStructure.jsp?monomerid=50201898

> <Link to Ligand-Target Pair in BindingDB>
http://www.bindingdb.org/jsp/dbsearch/PrimarySearch_ki.jsp?energyterm=kJ/mole&tag=r21&monomerid=50201898&enzyme=Dihydroorotate+dehydrogenase&column=ki&startPg=0&Increment=50&submit=Search

> <PubChem CID>
16099918

> <PubChem SID>
104081549

$$$$

  Mrv2115 07222212352D          

 34 37  0  0  0  0            999 V2000
   -5.1659   -2.8414    0.0000 C   0  0  0  0  0  0  0  0  0  0  0  0
   -5.5784   -2.1269    0.0000 C   0  0  0  0  0  0  0  0  0  0  0  0
   -6.4034   -2.1269    0.0000 C   0  0  0  0  0  0  0  0  0  0  0  0
   -6.8159   -1.4124    0.0000 C   0  0  0  0  0  0  0  0  0  0  0  0
   -6.4034   -0.6979    0.0000 N   0  0  0  0  0  0  0  0  0  0  0  0
   -5.5784   -0.6979    0.0000 N   0  0  0  0  0  0  0  0  0  0  0  0
   -5.1659   -1.4124    0.0000 C   0  0  0  0  0  0  0  0  0  0  0  0
   -4.3409   -1.4124    0.0000 N   0  0  0  0  0  0  0  0  0  0  0  0
   -3.9284   -0.6979    0.0000 C   0  0  0  0  0  0  0  0  0  0  0  0
   -4.3409    0.0165    0.0000 O   0  0  0  0  0  0  0  0  0  0  0  0
   -3.1034   -0.6979    0.0000 C   0  0  0  0  0  0  0  0  0  0  0  0
   -2.6909    0.0165    0.0000 C   0  0  0  0  0  0  0  0  0  0  0  0
   -1.8659    0.0165    0.0000 C   0  0  0  0  0  0  0  0  0  0  0  0
   -1.4534    0.7310    0.0000 F   0  0  0  0  0  0  0  0  0  0  0  0
   -1.4534   -0.6979    0.0000 C   0  0  0  0  0  0  0  0  0  0  0  0
   -0.6284   -0.6979    0.0000 N   0  0  0  0  0  0  0  0  0  0  0  0
   -0.1435   -1.3654    0.0000 N   0  0  0  0  0  0  0  0  0  0  0  0
    0.6411   -1.1104    0.0000 C   0  0  0  0  0  0  0  0  0  0  0  0
    0.6411   -0.2854    0.0000 N   0  0  0  0  0  0  0  0  0  0  0  0
   -0.1435   -0.0305    0.0000 C   0  0  0  0  0  0  0  0  0  0  0  0
   -0.3984    0.7541    0.0000 O   0  0  0  0  0  0  0  0  0  0  0  0
    1.3556    0.1271    0.0000 C   0  0  0  0  0  0  0  0  0  0  0  0
    2.0701   -0.2854    0.0000 C   0  0  0  0  0  0  0  0  0  0  0  0
    2.0701   -1.1104    0.0000 C   0  0  0  0  0  0  0  0  0  0  0  0
    1.3556   -1.5229    0.0000 C   0  0  0  0  0  0  0  0  0  0  0  0
   -1.8659   -1.4124    0.0000 C   0  0  0  0  0  0  0  0  0  0  0  0
   -2.6909   -1.4124    0.0000 C   0  0  0  0  0  0  0  0  0  0  0  0
   -3.1034   -2.1269    0.0000 O   0  0  0  0  0  0  0  0  0  0  0  0
   -2.6909   -2.8414    0.0000 C   0  0  0  0  0  0  0  0  0  0  0  0
   -1.8659   -2.8414    0.0000 C   0  0  0  0  0  0  0  0  0  0  0  0
   -3.1034   -3.5558    0.0000 C   0  0  0  0  0  0  0  0  0  0  0  0
   -2.6909   -4.2703    0.0000 N   0  0  0  0  0  0  0  0  0  0  0  0
   -1.8659   -4.2703    0.0000 C   0  0  0  0  0  0  0  0  0  0  0  0
   -3.1034   -4.9848    0.0000 C   0  0  0  0  0  0  0  0  0  0  0  0
  1  2  1  0  0  0  0
  2  3  4  0  0  0  0
  3  4  4  0  0  0  0
  4  5  4  0  0  0  0
  5  6  4  0  0  0  0
  6  7  4  0  0  0  0
  2  7  4  0  0  0  0
  7  8  1  0  0  0  0
  8  9  1  0  0  0  0
  9 10  2  0  0  0  0
  9 11  1  0  0  0  0
 11 12  4  0  0  0  0
 12 13  4  0  0  0  0
 13 14  1  0  0  0  0
 13 15  4  0  0  0  0
 15 16  1  0  0  0  0
 16 17  4  0  0  0  0
 17 18  4  0  0  0  0
 18 19  4  0  0  0  0
 19 20  4  0  0  0  0
 16 20  4  0  0  0  0
 20 21  2  0  0  0  0
 19 22  1  0  0  0  0
 22 23  1  0  0  0  0
 23 24  1  0  0  0  0
 24 25  1  0  0  0  0
 18 25  1  0  0  0  0
 15 26  4  0  0  0  0
 26 27  4  0  0  0  0
 11 27  4  0  0  0  0
 27 28  1  0  0  0  0
 28 29  1  0  0  0  0
 29 30  1  0  0  0  0
 29 31  1  0  0  0  0
 31 32  1  0  0  0  0
 32 33  1  0  0  0  0
 32 34  1  0  0  0  0
M  END
> <IC50(uM)>
1.0

> <Outcome>
1.0

> <BindingDB ID>
1020680

> <BindingDB MonomerID>
490606

> <BindingDB Ligand Name>
2-{[(2S)-1-(dimethylamino)propan-2-yl]oxy}-5-fluoro-N-(4-methylpyridazin-3-yl)-4-(3-oxo-5,6,7,8-tetrahydro[1,2,4]triazolo[4,3-a]pyridin-2(3H)-yl)benzamide::US10968216, Example 274

> <Curation/DataSource>
US Patent

> <Article DOI>
?

> <PMID>
?

> <Patent Number>
US10968216

> <Authors>
Gradl, SN; Nguyen, D; Eis, K; Gunther, J; Stellfeld, T; Janzer, A; Christian, S; Mueller, T; Sheikh, SE; Zhou, HJ; Zhao, C; Sykes, DB; Ferrara, SJ; Liu, K; Herbert, SA; Merz, C; Niehues, M; Nising, CF; Schafer, M; Zimmermann, K; Knablein, J; Thede, K; Faupel, T

> <Link to Ligand in BindingDB>
http://www.bindingdb.org/bind/chemsearch/marvin/MolStructure.jsp?monomerid=490606

> <Link to Ligand-Target Pair in BindingDB>
http://www.bindingdb.org/jsp/dbsearch/PrimarySearch_ki.jsp?energyterm=kJ/mole&tag=r21&monomerid=490606&enzyme=Dihydroorotate+dehydrogenase&column=ki&startPg=0&Increment=50&submit=Search

> <PubChem CID>
134474065

> <PubChem SID>
447117332

$$$$

  Mrv2115 07222212352D          

 34 36  0  0  0  0            999 V2000
    0.7145   -3.7125    0.0000 C   0  0  0  0  0  0  0  0  0  0  0  0
    1.4289   -4.1250    0.0000 C   0  0  0  0  0  0  0  0  0  0  0  0
    2.1434   -3.7125    0.0000 C   0  0  0  0  0  0  0  0  0  0  0  0
    2.8579   -4.1250    0.0000 C   0  0  0  0  0  0  0  0  0  0  0  0
    2.8579   -4.9500    0.0000 C   0  0  0  0  0  0  0  0  0  0  0  0
    3.5724   -3.7125    0.0000 O   0  0  0  0  0  0  0  0  0  0  0  0
    3.5724   -2.8875    0.0000 C   0  0  0  0  0  0  0  0  0  0  0  0
    2.8579   -2.4750    0.0000 C   0  0  0  0  0  0  0  0  0  0  0  0
    2.8579   -1.6500    0.0000 C   0  0  0  0  0  0  0  0  0  0  0  0
    2.1434   -1.2375    0.0000 N   0  0  0  0  0  0  0  0  0  0  0  0
    1.3897   -1.5731    0.0000 N   0  0  0  0  0  0  0  0  0  0  0  0
    0.8377   -0.9600    0.0000 C   0  0  0  0  0  0  0  0  0  0  0  0
    0.0172   -1.0462    0.0000 C   0  0  0  0  0  0  0  0  0  0  0  0
   -0.4677   -0.3788    0.0000 C   0  0  0  0  0  0  0  0  0  0  0  0
    1.2502   -0.2455    0.0000 N   0  0  0  0  0  0  0  0  0  0  0  0
    0.9146    0.5082    0.0000 C   0  0  0  0  0  0  0  0  0  0  0  0
    2.0572   -0.4170    0.0000 C   0  0  0  0  0  0  0  0  0  0  0  0
    2.6703    0.1350    0.0000 O   0  0  0  0  0  0  0  0  0  0  0  0
    3.5724   -1.2375    0.0000 C   0  0  0  0  0  0  0  0  0  0  0  0
    3.5724   -0.4125    0.0000 F   0  0  0  0  0  0  0  0  0  0  0  0
    4.2868   -1.6500    0.0000 C   0  0  0  0  0  0  0  0  0  0  0  0
    4.2868   -2.4750    0.0000 C   0  0  0  0  0  0  0  0  0  0  0  0
    5.0013   -2.8875    0.0000 C   0  0  0  0  0  0  0  0  0  0  0  0
    5.7158   -2.4750    0.0000 O   0  0  0  0  0  0  0  0  0  0  0  0
    5.0013   -3.7125    0.0000 N   0  0  0  0  0  0  0  0  0  0  0  0
    5.7158   -4.1250    0.0000 C   0  0  0  0  0  0  0  0  0  0  0  0
    6.4302   -3.7125    0.0000 C   0  0  0  0  0  0  0  0  0  0  0  0
    6.4302   -2.8875    0.0000 C   0  0  0  0  0  0  0  0  0  0  0  0
    7.1447   -4.1250    0.0000 C   0  0  0  0  0  0  0  0  0  0  0  0
    7.1447   -4.9500    0.0000 C   0  0  0  0  0  0  0  0  0  0  0  0
    6.4302   -5.3625    0.0000 C   0  0  0  0  0  0  0  0  0  0  0  0
    5.7158   -4.9500    0.0000 C   0  0  0  0  0  0  0  0  0  0  0  0
    5.0013   -5.3625    0.0000 C   0  0  0  0  0  0  0  0  0  0  0  0
    4.2868   -4.9500    0.0000 N   0  0  0  0  0  0  0  0  0  0  0  0
  1  2  1  0  0  0  0
  2  3  1  0  0  0  0
  3  4  1  0  0  0  0
  4  5  1  0  0  0  0
  4  6  1  0  0  0  0
  6  7  1  0  0  0  0
  7  8  4  0  0  0  0
  8  9  4  0  0  0  0
  9 10  1  0  0  0  0
 10 11  4  0  0  0  0
 11 12  4  0  0  0  0
 12 13  1  0  0  0  0
 13 14  1  0  0  0  0
 12 15  4  0  0  0  0
 15 16  1  0  0  0  0
 15 17  4  0  0  0  0
 10 17  4  0  0  0  0
 17 18  2  0  0  0  0
  9 19  4  0  0  0  0
 19 20  1  0  0  0  0
 19 21  4  0  0  0  0
 21 22  4  0  0  0  0
  7 22  4  0  0  0  0
 22 23  1  0  0  0  0
 23 24  2  0  0  0  0
 23 25  1  0  0  0  0
 25 26  1  0  0  0  0
 26 27  4  0  0  0  0
 27 28  1  0  0  0  0
 27 29  4  0  0  0  0
 29 30  4  0  0  0  0
 30 31  4  0  0  0  0
 31 32  4  0  0  0  0
 26 32  4  0  0  0  0
 32 33  1  0  0  0  0
 33 34  1  0  0  0  0
M  END
> <IC50(uM)>
13.0

> <Outcome>
0.0

> <BindingDB ID>
972548; 1098702

> <BindingDB MonomerID>
470422

> <BindingDB Ligand Name>
N-[2-(aminomethyl)-6-methylphenyl]-4-(3-ethyl-4-methyl-5-oxo-4,5-dihydro-1H-1,2,4-triazol-1-yl)-5-fluoro-2-[(2S)-pentan-2-yloxy]benzamide::US10815215, Example 90; N-[2-(aminomethyl)-6-methylphenyl]-4-(3-ethyl-4-methyl-5-oxo-4,5-dihydro-1H-1,2,4-triazol-1-yl)-5-fluoro-2-[(2S)-pentan-2-yloxy]benzamide::US10815215, Example 90::US11130745, Example 90

> <Curation/DataSource>
US Patent

> <Article DOI>
?

> <PMID>
?

> <Patent Number>
US10815215; US11130745

> <Authors>
Gradl, SN; Nguyen, D; Eis, K; Gunther, J; Stellfeld, T; Janzer, A; Christian, S; Muller, T; Sheikh, SE; Zhou, HJ; Zhao, C; Sykes, DB; Ferrara, SJ; Liu, K; Krober, M; Merz, C; Niehues, M; Schafer, M; Zimmermann, K; Nising, CF; Gradl, SN; Nguyen, D; Eis, K; Gunther, J; Stellfeld, T; Janzer, A; Christian, S; Muller, T; Sheikh, SE; Sykes, DB; Ferrara, SJ; Krober, M; Merz, C; Niehues, M; Schafer, M; Zimmermann, K; Nising, CF

> <Link to Ligand in BindingDB>
http://www.bindingdb.org/bind/chemsearch/marvin/MolStructure.jsp?monomerid=470422

> <Link to Ligand-Target Pair in BindingDB>
http://www.bindingdb.org/jsp/dbsearch/PrimarySearch_ki.jsp?energyterm=kJ/mole&tag=r21&monomerid=470422&enzyme=Dihydroorotate+dehydrogenase&column=ki&startPg=0&Increment=50&submit=Search

> <PubChem CID>
134469938

> <PubChem SID>
441609599

$$$$

  Mrv2115 07222212352D          

 34 36  0  0  0  0            999 V2000
   -2.2960    1.8657    0.0000 C   0  0  0  0  0  0  0  0  0  0  0  0
   -1.9605    1.1120    0.0000 C   0  0  0  0  0  0  0  0  0  0  0  0
   -2.4454    0.4445    0.0000 C   0  0  0  0  0  0  0  0  0  0  0  0
   -2.1904   -0.3401    0.0000 N   0  0  0  0  0  0  0  0  0  0  0  0
   -2.8579   -0.8250    0.0000 N   0  0  0  0  0  0  0  0  0  0  0  0
   -2.8579   -1.6500    0.0000 C   0  0  0  0  0  0  0  0  0  0  0  0
   -2.1434   -2.0625    0.0000 C   0  0  0  0  0  0  0  0  0  0  0  0
   -2.1434   -2.8875    0.0000 C   0  0  0  0  0  0  0  0  0  0  0  0
   -1.4289   -3.3000    0.0000 O   0  0  0  0  0  0  0  0  0  0  0  0
   -0.7145   -2.8875    0.0000 C   0  0  0  0  0  0  0  0  0  0  0  0
   -0.7145   -2.0625    0.0000 C   0  0  0  0  0  0  0  0  0  0  0  0
    0.0000   -3.3000    0.0000 C   0  0  0  0  0  0  0  0  0  0  0  0
    0.7145   -2.8875    0.0000 N   0  0  0  0  0  0  0  0  0  0  0  0
    0.7145   -2.0625    0.0000 C   0  0  0  0  0  0  0  0  0  0  0  0
    1.4289   -3.3000    0.0000 C   0  0  0  0  0  0  0  0  0  0  0  0
   -2.8579   -3.3000    0.0000 C   0  0  0  0  0  0  0  0  0  0  0  0
   -2.8579   -4.1250    0.0000 C   0  0  0  0  0  0  0  0  0  0  0  0
   -3.5724   -4.5375    0.0000 O   0  0  0  0  0  0  0  0  0  0  0  0
   -2.1434   -4.5375    0.0000 N   0  0  0  0  0  0  0  0  0  0  0  0
   -2.1434   -5.3625    0.0000 C   0  0  0  0  0  0  0  0  0  0  0  0
   -1.4289   -5.7750    0.0000 C   0  0  0  0  0  0  0  0  0  0  0  0
   -0.7145   -5.3625    0.0000 C   0  0  0  0  0  0  0  0  0  0  0  0
   -1.4289   -6.6000    0.0000 C   0  0  0  0  0  0  0  0  0  0  0  0
   -2.1434   -7.0125    0.0000 C   0  0  0  0  0  0  0  0  0  0  0  0
   -2.8579   -6.6000    0.0000 C   0  0  0  0  0  0  0  0  0  0  0  0
   -2.8579   -5.7750    0.0000 C   0  0  0  0  0  0  0  0  0  0  0  0
   -3.5724   -5.3625    0.0000 F   0  0  0  0  0  0  0  0  0  0  0  0
   -3.5724   -2.8875    0.0000 C   0  0  0  0  0  0  0  0  0  0  0  0
   -3.5724   -2.0625    0.0000 C   0  0  0  0  0  0  0  0  0  0  0  0
   -4.2868   -1.6500    0.0000 F   0  0  0  0  0  0  0  0  0  0  0  0
   -3.5253   -0.3401    0.0000 C   0  0  0  0  0  0  0  0  0  0  0  0
   -4.3099   -0.5950    0.0000 O   0  0  0  0  0  0  0  0  0  0  0  0
   -3.2704    0.4445    0.0000 N   0  0  0  0  0  0  0  0  0  0  0  0
   -3.7553    1.1120    0.0000 C   0  0  0  0  0  0  0  0  0  0  0  0
  1  2  1  0  0  0  0
  2  3  1  0  0  0  0
  3  4  4  0  0  0  0
  4  5  4  0  0  0  0
  5  6  1  0  0  0  0
  6  7  4  0  0  0  0
  7  8  4  0  0  0  0
  8  9  1  0  0  0  0
  9 10  1  0  0  0  0
 10 11  1  0  0  0  0
 10 12  1  0  0  0  0
 12 13  1  0  0  0  0
 13 14  1  0  0  0  0
 13 15  1  0  0  0  0
  8 16  4  0  0  0  0
 16 17  1  0  0  0  0
 17 18  2  0  0  0  0
 17 19  1  0  0  0  0
 19 20  1  0  0  0  0
 20 21  4  0  0  0  0
 21 22  1  0  0  0  0
 21 23  4  0  0  0  0
 23 24  4  0  0  0  0
 24 25  4  0  0  0  0
 25 26  4  0  0  0  0
 20 26  4  0  0  0  0
 26 27  1  0  0  0  0
 16 28  4  0  0  0  0
 28 29  4  0  0  0  0
  6 29  4  0  0  0  0
 29 30  1  0  0  0  0
  5 31  4  0  0  0  0
 31 32  2  0  0  0  0
 31 33  4  0  0  0  0
  3 33  4  0  0  0  0
 33 34  1  0  0  0  0
M  END
> <IC50(uM)>
0.031

> <Outcome>
1.0

> <BindingDB ID>
1098824; 972670

> <BindingDB MonomerID>
470548

> <BindingDB Ligand Name>
2-{[(2S)-1-(dimethylamino)propan-2-yl]oxy}-4-(3-ethyl-4-methyl-5-oxo-4,5-dihydro-1H-1,2,4-triazol-1-yl)-5-fluoro-N-(2-fluoro-6-methylphenyl)benzamide::US10815215, Example 208::US11130745, Example 208; 2-{[(2S)-1-(dimethylamino)propan-2-yl]oxy}-4-(3-ethyl-4-methyl-5-oxo-4,5-dihydro-1H-1,2,4-triazol-1-yl)-5-fluoro-N-(2-fluoro-6-methylphenyl)benzamide::US10815215, Example 208

> <Curation/DataSource>
US Patent

> <Article DOI>
?

> <PMID>
?

> <Patent Number>
US11130745; US10815215

> <Authors>
Gradl, SN; Nguyen, D; Eis, K; Gunther, J; Stellfeld, T; Janzer, A; Christian, S; Muller, T; Sheikh, SE; Sykes, DB; Ferrara, SJ; Krober, M; Merz, C; Niehues, M; Schafer, M; Zimmermann, K; Nising, CF; Gradl, SN; Nguyen, D; Eis, K; Gunther, J; Stellfeld, T; Janzer, A; Christian, S; Muller, T; Sheikh, SE; Zhou, HJ; Zhao, C; Sykes, DB; Ferrara, SJ; Liu, K; Krober, M; Merz, C; Niehues, M; Schafer, M; Zimmermann, K; Nising, CF

> <Link to Ligand in BindingDB>
http://www.bindingdb.org/bind/chemsearch/marvin/MolStructure.jsp?monomerid=470548

> <Link to Ligand-Target Pair in BindingDB>
http://www.bindingdb.org/jsp/dbsearch/PrimarySearch_ki.jsp?energyterm=kJ/mole&tag=r21&monomerid=470548&enzyme=Dihydroorotate+dehydrogenase&column=ki&startPg=0&Increment=50&submit=Search

> <PubChem CID>
134469999

> <PubChem SID>
441609724

$$$$

  Mrv2115 07222212352D          

 25 28  0  0  0  0            999 V2000
    0.8838   -2.1500    0.0000 C   0  0  0  0  0  0  0  0  0  0  0  0
    1.1387   -1.3654    0.0000 N   0  0  0  0  0  0  0  0  0  0  0  0
    0.6538   -0.6979    0.0000 N   0  0  0  0  0  0  0  0  0  0  0  0
    1.1387   -0.0305    0.0000 N   0  0  0  0  0  0  0  0  0  0  0  0
    1.9233   -0.2854    0.0000 C   0  0  0  0  0  0  0  0  0  0  0  0
    2.6378    0.1271    0.0000 C   0  0  0  0  0  0  0  0  0  0  0  0
    3.3523   -0.2854    0.0000 C   0  0  0  0  0  0  0  0  0  0  0  0
    4.0668    0.1271    0.0000 C   0  0  0  0  0  0  0  0  0  0  0  0
    4.0668    0.9521    0.0000 C   0  0  0  0  0  0  0  0  0  0  0  0
    4.7812    1.3646    0.0000 C   0  0  0  0  0  0  0  0  0  0  0  0
    5.4957    0.9521    0.0000 C   0  0  0  0  0  0  0  0  0  0  0  0
    6.2102    1.3646    0.0000 C   0  0  0  0  0  0  0  0  0  0  0  0
    6.2102    2.1896    0.0000 C   0  0  0  0  0  0  0  0  0  0  0  0
    6.9246    2.6021    0.0000 C   0  0  0  0  0  0  0  0  0  0  0  0
    7.6391    2.1896    0.0000 C   0  0  0  0  0  0  0  0  0  0  0  0
    7.6391    1.3646    0.0000 C   0  0  0  0  0  0  0  0  0  0  0  0
    6.9246    0.9521    0.0000 C   0  0  0  0  0  0  0  0  0  0  0  0
    5.4957    0.1271    0.0000 C   0  0  0  0  0  0  0  0  0  0  0  0
    4.7812   -0.2854    0.0000 C   0  0  0  0  0  0  0  0  0  0  0  0
    3.3523   -1.1104    0.0000 C   0  0  0  0  0  0  0  0  0  0  0  0
    2.6378   -1.5229    0.0000 C   0  0  0  0  0  0  0  0  0  0  0  0
    2.6378   -2.3479    0.0000 C   0  0  0  0  0  0  0  0  0  0  0  0
    1.9233   -2.7604    0.0000 O   0  0  0  0  0  0  0  0  0  0  0  0
    3.3523   -2.7604    0.0000 O   0  0  0  0  0  0  0  0  0  0  0  0
    1.9233   -1.1104    0.0000 C   0  0  0  0  0  0  0  0  0  0  0  0
  1  2  1  0  0  0  0
  2  3  4  0  0  0  0
  3  4  4  0  0  0  0
  4  5  4  0  0  0  0
  5  6  4  0  0  0  0
  6  7  4  0  0  0  0
  7  8  1  0  0  0  0
  8  9  4  0  0  0  0
  9 10  4  0  0  0  0
 10 11  4  0  0  0  0
 11 12  1  0  0  0  0
 12 13  4  0  0  0  0
 13 14  4  0  0  0  0
 14 15  4  0  0  0  0
 15 16  4  0  0  0  0
 16 17  4  0  0  0  0
 12 17  4  0  0  0  0
 11 18  4  0  0  0  0
 18 19  4  0  0  0  0
  8 19  4  0  0  0  0
  7 20  4  0  0  0  0
 20 21  4  0  0  0  0
 21 22  1  0  0  0  0
 22 23  2  0  0  0  0
 22 24  1  0  0  0  0
 21 25  4  0  0  0  0
  5 25  4  0  0  0  0
  2 25  4  0  0  0  0
M  END
> <IC50(uM)>
0.55

> <Outcome>
1.0

> <BindingDB ID>
1100164

> <BindingDB MonomerID>
520623

> <BindingDB Ligand Name>
5-([1,1'-biphenyl]-4-yl)-1-methyl-1H-benzo[d][1,2,3]triazole-7-carboxylic acid;::US11147801, Compound 3

> <Curation/DataSource>
US Patent

> <Article DOI>
?

> <PMID>
?

> <Patent Number>
US11147801

> <Authors>
Nellore, K; Hosahalli, S

> <Link to Ligand in BindingDB>
http://www.bindingdb.org/bind/chemsearch/marvin/MolStructure.jsp?monomerid=520623

> <Link to Ligand-Target Pair in BindingDB>
http://www.bindingdb.org/jsp/dbsearch/PrimarySearch_ki.jsp?energyterm=kJ/mole&tag=r21&monomerid=520623&enzyme=Dihydroorotate+dehydrogenase&column=ki&startPg=0&Increment=50&submit=Search

> <PubChem CID>
?

> <PubChem SID>
?

$$$$

  Mrv2115 07222212352D          

 18 19  0  0  0  0            999 V2000
   -1.4289   -0.0000    0.0000 C   0  0  0  0  0  0  0  0  0  0  0  0
   -0.7145   -0.4125    0.0000 O   0  0  0  0  0  0  0  0  0  0  0  0
   -0.7145   -1.2375    0.0000 C   0  0  0  0  0  0  0  0  0  0  0  0
    0.0000   -1.6500    0.0000 C   0  0  0  0  0  0  0  0  0  0  0  0
    0.0000   -2.4750    0.0000 C   0  0  0  0  0  0  0  0  0  0  0  0
   -0.7145   -2.8875    0.0000 C   0  0  0  0  0  0  0  0  0  0  0  0
   -0.7145   -3.7125    0.0000 N   0  0  0  0  0  0  0  0  0  0  0  0
    0.0000   -4.1250    0.0000 C   0  0  0  0  0  0  0  0  0  0  0  0
    0.7145   -3.7125    0.0000 C   0  0  0  0  0  0  0  0  0  0  0  0
    1.4289   -4.1250    0.0000 C   0  0  0  0  0  0  0  0  0  0  0  0
    1.4289   -4.9500    0.0000 C   0  0  0  0  0  0  0  0  0  0  0  0
    0.7145   -5.3625    0.0000 C   0  0  0  0  0  0  0  0  0  0  0  0
   -0.0000   -4.9500    0.0000 C   0  0  0  0  0  0  0  0  0  0  0  0
   -0.7145   -5.3625    0.0000 C   0  0  0  0  0  0  0  0  0  0  0  0
   -1.4289   -4.9500    0.0000 O   0  0  0  0  0  0  0  0  0  0  0  0
   -0.7145   -6.1875    0.0000 O   0  0  0  0  0  0  0  0  0  0  0  0
   -1.4289   -2.4750    0.0000 C   0  0  0  0  0  0  0  0  0  0  0  0
   -1.4289   -1.6500    0.0000 C   0  0  0  0  0  0  0  0  0  0  0  0
  1  2  1  0  0  0  0
  2  3  1  0  0  0  0
  3  4  4  0  0  0  0
  4  5  4  0  0  0  0
  5  6  4  0  0  0  0
  6  7  1  0  0  0  0
  7  8  1  0  0  0  0
  8  9  4  0  0  0  0
  9 10  4  0  0  0  0
 10 11  4  0  0  0  0
 11 12  4  0  0  0  0
 12 13  4  0  0  0  0
  8 13  4  0  0  0  0
 13 14  1  0  0  0  0
 14 15  2  0  0  0  0
 14 16  1  0  0  0  0
  6 17  4  0  0  0  0
 17 18  4  0  0  0  0
  3 18  4  0  0  0  0
M  END
> <IC50(uM)>
10.0

> <Outcome>
0.0

> <BindingDB ID>
50527796

> <BindingDB MonomerID>
69369

> <BindingDB Ligand Name>
2-(4-methoxyanilino)benzoic acid::2-(p-anisidino)benzoic acid::2-[(4-methoxyphenyl)amino]benzoic acid::MLS000775662::SMR000370544::cid_202918

> <Curation/DataSource>
ChEMBL

> <Article DOI>
10.1021/acsmedchemlett.6b00316

> <PMID>
27994748

> <Patent Number>
?

> <Authors>
Lewis, TA; Sykes, DB; Law, JM; Mu??oz, B; Rustiguel, JK; Nonato, MC; Scadden, DT; Schreiber, SL

> <Link to Ligand in BindingDB>
http://www.bindingdb.org/bind/chemsearch/marvin/MolStructure.jsp?monomerid=69369

> <Link to Ligand-Target Pair in BindingDB>
http://www.bindingdb.org/jsp/dbsearch/PrimarySearch_ki.jsp?energyterm=kJ/mole&tag=r21&monomerid=69369&enzyme=Dihydroorotate+dehydrogenase&column=ki&startPg=0&Increment=50&submit=Search

> <PubChem CID>
202918

> <PubChem SID>
252647537

$$$$

  Mrv2115 07222212352D          

 36 38  0  0  0  0            999 V2000
    2.1434   -3.7125    0.0000 C   0  0  0  0  0  0  0  0  0  0  0  0
    1.4289   -4.1250    0.0000 C   0  0  0  0  0  0  0  0  0  0  0  0
    1.4289   -4.9500    0.0000 N   0  0  0  0  0  0  0  0  0  0  0  0
    0.7615   -5.4349    0.0000 C   0  0  0  0  0  0  0  0  0  0  0  0
   -0.0231   -5.1800    0.0000 C   0  0  0  0  0  0  0  0  0  0  0  0
   -0.1946   -4.3730    0.0000 N   0  0  0  0  0  0  0  0  0  0  0  0
   -0.6362   -5.7320    0.0000 O   0  0  0  0  0  0  0  0  0  0  0  0
    1.0164   -6.2195    0.0000 N   0  0  0  0  0  0  0  0  0  0  0  0
    1.8414   -6.2195    0.0000 N   0  0  0  0  0  0  0  0  0  0  0  0
    2.3264   -6.8870    0.0000 C   0  0  0  0  0  0  0  0  0  0  0  0
    3.1468   -6.8007    0.0000 C   0  0  0  0  0  0  0  0  0  0  0  0
    3.6318   -7.4682    0.0000 C   0  0  0  0  0  0  0  0  0  0  0  0
    4.4522   -7.3820    0.0000 O   0  0  0  0  0  0  0  0  0  0  0  0
    4.7878   -6.6283    0.0000 C   0  0  0  0  0  0  0  0  0  0  0  0
    4.3029   -5.9608    0.0000 C   0  0  0  0  0  0  0  0  0  0  0  0
    5.6083   -6.5420    0.0000 C   0  0  0  0  0  0  0  0  0  0  0  0
    5.6945   -7.3625    0.0000 F   0  0  0  0  0  0  0  0  0  0  0  0
    5.5221   -5.7216    0.0000 F   0  0  0  0  0  0  0  0  0  0  0  0
    6.4288   -6.4558    0.0000 F   0  0  0  0  0  0  0  0  0  0  0  0
    3.2962   -8.2219    0.0000 C   0  0  0  0  0  0  0  0  0  0  0  0
    3.7811   -8.8893    0.0000 C   0  0  0  0  0  0  0  0  0  0  0  0
    3.4456   -9.6430    0.0000 O   0  0  0  0  0  0  0  0  0  0  0  0
    4.6016   -8.8031    0.0000 N   0  0  0  0  0  0  0  0  0  0  0  0
    5.0865   -9.4705    0.0000 C   0  0  0  0  0  0  0  0  0  0  0  0
    5.9070   -9.3843    0.0000 C   0  0  0  0  0  0  0  0  0  0  0  0
    6.2426   -8.6306    0.0000 F   0  0  0  0  0  0  0  0  0  0  0  0
    6.3919  -10.0517    0.0000 C   0  0  0  0  0  0  0  0  0  0  0  0
    6.0564  -10.8054    0.0000 C   0  0  0  0  0  0  0  0  0  0  0  0
    5.2359  -10.8916    0.0000 C   0  0  0  0  0  0  0  0  0  0  0  0
    4.7510  -10.2242    0.0000 C   0  0  0  0  0  0  0  0  0  0  0  0
    3.9305  -10.3104    0.0000 F   0  0  0  0  0  0  0  0  0  0  0  0
    2.4757   -8.3081    0.0000 C   0  0  0  0  0  0  0  0  0  0  0  0
    1.9908   -7.6407    0.0000 C   0  0  0  0  0  0  0  0  0  0  0  0
    1.1703   -7.7269    0.0000 F   0  0  0  0  0  0  0  0  0  0  0  0
    2.0964   -5.4349    0.0000 C   0  0  0  0  0  0  0  0  0  0  0  0
    2.8810   -5.1800    0.0000 O   0  0  0  0  0  0  0  0  0  0  0  0
  1  2  1  0  0  0  0
  2  3  1  0  0  0  0
  3  4  4  0  0  0  0
  4  5  1  0  0  0  0
  5  6  1  0  0  0  0
  5  7  2  0  0  0  0
  4  8  4  0  0  0  0
  8  9  4  0  0  0  0
  9 10  1  0  0  0  0
 10 11  4  0  0  0  0
 11 12  4  0  0  0  0
 12 13  1  0  0  0  0
 13 14  1  0  0  0  0
 14 15  1  0  0  0  0
 14 16  1  0  0  0  0
 16 17  1  0  0  0  0
 16 18  1  0  0  0  0
 16 19  1  0  0  0  0
 12 20  4  0  0  0  0
 20 21  1  0  0  0  0
 21 22  2  0  0  0  0
 21 23  1  0  0  0  0
 23 24  1  0  0  0  0
 24 25  4  0  0  0  0
 25 26  1  0  0  0  0
 25 27  4  0  0  0  0
 27 28  4  0  0  0  0
 28 29  4  0  0  0  0
 29 30  4  0  0  0  0
 24 30  4  0  0  0  0
 30 31  1  0  0  0  0
 20 32  4  0  0  0  0
 32 33  4  0  0  0  0
 10 33  4  0  0  0  0
 33 34  1  0  0  0  0
  9 35  4  0  0  0  0
  3 35  4  0  0  0  0
 35 36  2  0  0  0  0
M  END
> <IC50(uM)>
0.02

> <Outcome>
1.0

> <BindingDB ID>
1098847; 972693

> <BindingDB MonomerID>
470571

> <BindingDB Ligand Name>
1-(4-[(2,6-difluorophenyl)carbamoyl]-2-fluoro-5-{[(2S)-1,1,1-trifluoropropan-2-yl]oxy}phenyl)-4-ethyl-5-oxo-4,5-dihydro-1H-1,2,4-triazole-3-carboxamide::US10815215, Example 231::US11130745, Example 231; 1-(4-[(2,6-difluorophenyl)carbamoyl]-2-fluoro-5-{[(2S)-1,1,1-trifluoropropan-2-yl]oxy}phenyl)-4-ethyl-5-oxo-4,5-dihydro-1H-1,2,4-triazole-3-carboxamide::US10815215, Example 231

> <Curation/DataSource>
US Patent

> <Article DOI>
?

> <PMID>
?

> <Patent Number>
US11130745; US10815215

> <Authors>
Gradl, SN; Nguyen, D; Eis, K; Gunther, J; Stellfeld, T; Janzer, A; Christian, S; Muller, T; Sheikh, SE; Sykes, DB; Ferrara, SJ; Krober, M; Merz, C; Niehues, M; Schafer, M; Zimmermann, K; Nising, CF; Gradl, SN; Nguyen, D; Eis, K; Gunther, J; Stellfeld, T; Janzer, A; Christian, S; Muller, T; Sheikh, SE; Zhou, HJ; Zhao, C; Sykes, DB; Ferrara, SJ; Liu, K; Krober, M; Merz, C; Niehues, M; Schafer, M; Zimmermann, K; Nising, CF

> <Link to Ligand in BindingDB>
http://www.bindingdb.org/bind/chemsearch/marvin/MolStructure.jsp?monomerid=470571

> <Link to Ligand-Target Pair in BindingDB>
http://www.bindingdb.org/jsp/dbsearch/PrimarySearch_ki.jsp?energyterm=kJ/mole&tag=r21&monomerid=470571&enzyme=Dihydroorotate+dehydrogenase&column=ki&startPg=0&Increment=50&submit=Search

> <PubChem CID>
134470328

> <PubChem SID>
441609747

$$$$

  Mrv2115 07222212352D          

 20 22  0  0  0  0            999 V2000
    4.0668    2.3479    0.0000 C   0  0  0  0  0  0  0  0  0  0  0  0
    3.3523    1.9354    0.0000 C   0  0  0  0  0  0  0  0  0  0  0  0
    3.3523    1.1104    0.0000 C   0  0  0  0  0  0  0  0  0  0  0  0
    2.6378    0.6979    0.0000 C   0  0  0  0  0  0  0  0  0  0  0  0
    2.6378   -0.1271    0.0000 N   0  0  0  0  0  0  0  0  0  0  0  0
    1.9233   -0.5396    0.0000 C   0  0  0  0  0  0  0  0  0  0  0  0
    1.9233   -1.3646    0.0000 C   0  0  0  0  0  0  0  0  0  0  0  0
    1.2089   -1.7771    0.0000 C   0  0  0  0  0  0  0  0  0  0  0  0
    0.4944   -1.3646    0.0000 C   0  0  0  0  0  0  0  0  0  0  0  0
   -0.2201   -1.7771    0.0000 N   0  0  0  0  0  0  0  0  0  0  0  0
   -0.2201   -2.6021    0.0000 C   0  0  0  0  0  0  0  0  0  0  0  0
   -0.9345   -1.3646    0.0000 C   0  0  0  0  0  0  0  0  0  0  0  0
    0.4944   -0.5396    0.0000 C   0  0  0  0  0  0  0  0  0  0  0  0
    1.2089   -0.1271    0.0000 C   0  0  0  0  0  0  0  0  0  0  0  0
    1.9233    1.1104    0.0000 N   0  0  0  0  0  0  0  0  0  0  0  0
    1.1387    0.8555    0.0000 N   0  0  0  0  0  0  0  0  0  0  0  0
    0.6538    1.5229    0.0000 C   0  0  0  0  0  0  0  0  0  0  0  0
    1.1387    2.1904    0.0000 N   0  0  0  0  0  0  0  0  0  0  0  0
    1.9233    1.9354    0.0000 C   0  0  0  0  0  0  0  0  0  0  0  0
    2.6378    2.3479    0.0000 N   0  0  0  0  0  0  0  0  0  0  0  0
  1  2  1  0  0  0  0
  2  3  4  0  0  0  0
  3  4  4  0  0  0  0
  4  5  1  0  0  0  0
  5  6  1  0  0  0  0
  6  7  4  0  0  0  0
  7  8  4  0  0  0  0
  8  9  4  0  0  0  0
  9 10  1  0  0  0  0
 10 11  1  0  0  0  0
 10 12  1  0  0  0  0
  9 13  4  0  0  0  0
 13 14  4  0  0  0  0
  6 14  4  0  0  0  0
  4 15  4  0  0  0  0
 15 16  4  0  0  0  0
 16 17  4  0  0  0  0
 17 18  4  0  0  0  0
 18 19  4  0  0  0  0
 15 19  4  0  0  0  0
 19 20  4  0  0  0  0
  2 20  4  0  0  0  0
M  END
> <IC50(uM)>
100.0

> <Outcome>
0.0

> <BindingDB ID>
50643161

> <BindingDB MonomerID>
50345412

> <BindingDB Ligand Name>
CHEMBL582694::GNF-Pf-2905::N1,N1-Dimethyl-N4-(5-methyl-[1,2,4]triazolo[1,5-a]pyrimidin-7-yl)-benzene-1,4-diamine

> <Curation/DataSource>
ChEMBL

> <Article DOI>
10.1021/jm200265b

> <PMID>
21517059

> <Patent Number>
?

> <Authors>
Gujjar, R; El Mazouni, F; White, KL; White, J; Creason, S; Shackleford, DM; Deng, X; Charman, WN; Bathurst, I; Burrows, J; Floyd, DM; Matthews, D; Buckner, FS; Charman, SA; Phillips, MA; Rathod, PK

> <Link to Ligand in BindingDB>
http://www.bindingdb.org/bind/chemsearch/marvin/MolStructure.jsp?monomerid=50345412

> <Link to Ligand-Target Pair in BindingDB>
http://www.bindingdb.org/jsp/dbsearch/PrimarySearch_ki.jsp?energyterm=kJ/mole&tag=r21&monomerid=50345412&enzyme=Dihydroorotate+dehydrogenase&column=ki&startPg=0&Increment=50&submit=Search

> <PubChem CID>
741604

> <PubChem SID>
131348348

$$$$

  Mrv2115 07222212352D          

 34 36  0  0  0  0            999 V2000
    2.1434   -3.7125    0.0000 C   0  0  0  0  0  0  0  0  0  0  0  0
    1.4289   -4.1250    0.0000 C   0  0  0  0  0  0  0  0  0  0  0  0
    1.4289   -4.9500    0.0000 N   0  0  0  0  0  0  0  0  0  0  0  0
    2.0964   -5.4349    0.0000 C   0  0  0  0  0  0  0  0  0  0  0  0
    2.8810   -5.1800    0.0000 C   0  0  0  0  0  0  0  0  0  0  0  0
    3.4941   -5.7320    0.0000 O   0  0  0  0  0  0  0  0  0  0  0  0
    1.8414   -6.2195    0.0000 N   0  0  0  0  0  0  0  0  0  0  0  0
    1.0164   -6.2195    0.0000 N   0  0  0  0  0  0  0  0  0  0  0  0
    0.5315   -6.8870    0.0000 C   0  0  0  0  0  0  0  0  0  0  0  0
    0.8671   -7.6407    0.0000 C   0  0  0  0  0  0  0  0  0  0  0  0
    0.3822   -8.3081    0.0000 C   0  0  0  0  0  0  0  0  0  0  0  0
   -0.4383   -8.2219    0.0000 C   0  0  0  0  0  0  0  0  0  0  0  0
   -0.9232   -8.8893    0.0000 C   0  0  0  0  0  0  0  0  0  0  0  0
   -1.7437   -8.8031    0.0000 O   0  0  0  0  0  0  0  0  0  0  0  0
   -0.5877   -9.6430    0.0000 N   0  0  0  0  0  0  0  0  0  0  0  0
   -1.0726  -10.3104    0.0000 C   0  0  0  0  0  0  0  0  0  0  0  0
   -0.7371  -11.0641    0.0000 C   0  0  0  0  0  0  0  0  0  0  0  0
    0.0834  -11.1503    0.0000 F   0  0  0  0  0  0  0  0  0  0  0  0
   -1.2220  -11.7315    0.0000 C   0  0  0  0  0  0  0  0  0  0  0  0
   -2.0425  -11.6453    0.0000 C   0  0  0  0  0  0  0  0  0  0  0  0
   -2.3780  -10.8916    0.0000 C   0  0  0  0  0  0  0  0  0  0  0  0
   -1.8931  -10.2242    0.0000 C   0  0  0  0  0  0  0  0  0  0  0  0
   -2.2287   -9.4705    0.0000 F   0  0  0  0  0  0  0  0  0  0  0  0
   -0.7739   -7.4682    0.0000 C   0  0  0  0  0  0  0  0  0  0  0  0
   -1.5944   -7.3820    0.0000 O   0  0  0  0  0  0  0  0  0  0  0  0
   -1.9299   -6.6283    0.0000 C   0  0  0  0  0  0  0  0  0  0  0  0
   -2.7504   -6.5420    0.0000 C   0  0  0  0  0  0  0  0  0  0  0  0
   -1.4450   -5.9608    0.0000 C   0  0  0  0  0  0  0  0  0  0  0  0
   -0.7776   -6.4458    0.0000 F   0  0  0  0  0  0  0  0  0  0  0  0
   -2.1124   -5.4759    0.0000 F   0  0  0  0  0  0  0  0  0  0  0  0
   -0.9601   -5.2934    0.0000 F   0  0  0  0  0  0  0  0  0  0  0  0
   -0.2890   -6.8007    0.0000 C   0  0  0  0  0  0  0  0  0  0  0  0
    0.7615   -5.4349    0.0000 C   0  0  0  0  0  0  0  0  0  0  0  0
   -0.0231   -5.1800    0.0000 O   0  0  0  0  0  0  0  0  0  0  0  0
  1  2  1  0  0  0  0
  2  3  1  0  0  0  0
  3  4  4  0  0  0  0
  4  5  1  0  0  0  0
  5  6  1  0  0  0  0
  4  7  4  0  0  0  0
  7  8  4  0  0  0  0
  8  9  1  0  0  0  0
  9 10  4  0  0  0  0
 10 11  4  0  0  0  0
 11 12  4  0  0  0  0
 12 13  1  0  0  0  0
 13 14  2  0  0  0  0
 13 15  1  0  0  0  0
 15 16  1  0  0  0  0
 16 17  4  0  0  0  0
 17 18  1  0  0  0  0
 17 19  4  0  0  0  0
 19 20  4  0  0  0  0
 20 21  4  0  0  0  0
 21 22  4  0  0  0  0
 16 22  4  0  0  0  0
 22 23  1  0  0  0  0
 12 24  4  0  0  0  0
 24 25  1  0  0  0  0
 25 26  1  0  0  0  0
 26 27  1  0  0  0  0
 26 28  1  0  0  0  0
 28 29  1  0  0  0  0
 28 30  1  0  0  0  0
 28 31  1  0  0  0  0
 24 32  4  0  0  0  0
  9 32  4  0  0  0  0
  8 33  4  0  0  0  0
  3 33  4  0  0  0  0
 33 34  2  0  0  0  0
M  END
> <IC50(uM)>
0.025

> <Outcome>
1.0

> <BindingDB ID>
1098793; 972639

> <BindingDB MonomerID>
470517

> <BindingDB Ligand Name>
N-(2,6-difluorophenyl)-4-[4-ethyl-3-(hydroxymethyl)-5-oxo-4,5-dihydro-1H-1,2,4-triazol-1-yl]-2-{[(2S)-1,1,1-trifluoropropan-2-yl]oxy}benzamide::US10815215, Example 177::US11130745, Example 177; N-(2,6-difluorophenyl)-4-[4-ethyl-3-(hydroxymethyl)-5-oxo-4,5-dihydro-1H-1,2,4-triazol-1-yl]-2-{[(2S)-1,1,1-trifluoropropan-2-yl]oxy}benzamide::US10815215, Example 177

> <Curation/DataSource>
US Patent

> <Article DOI>
?

> <PMID>
?

> <Patent Number>
US11130745; US10815215

> <Authors>
Gradl, SN; Nguyen, D; Eis, K; Gunther, J; Stellfeld, T; Janzer, A; Christian, S; Muller, T; Sheikh, SE; Sykes, DB; Ferrara, SJ; Krober, M; Merz, C; Niehues, M; Schafer, M; Zimmermann, K; Nising, CF; Gradl, SN; Nguyen, D; Eis, K; Gunther, J; Stellfeld, T; Janzer, A; Christian, S; Muller, T; Sheikh, SE; Zhou, HJ; Zhao, C; Sykes, DB; Ferrara, SJ; Liu, K; Krober, M; Merz, C; Niehues, M; Schafer, M; Zimmermann, K; Nising, CF

> <Link to Ligand in BindingDB>
http://www.bindingdb.org/bind/chemsearch/marvin/MolStructure.jsp?monomerid=470517

> <Link to Ligand-Target Pair in BindingDB>
http://www.bindingdb.org/jsp/dbsearch/PrimarySearch_ki.jsp?energyterm=kJ/mole&tag=r21&monomerid=470517&enzyme=Dihydroorotate+dehydrogenase&column=ki&startPg=0&Increment=50&submit=Search

> <PubChem CID>
134469987

> <PubChem SID>
441609693

$$$$

  Mrv2115 07222212352D          

 27 29  0  0  0  0            999 V2000
   -2.1434   -1.2375    0.0000 C   0  0  0  0  0  0  0  0  0  0  0  0
   -2.8579   -1.6500    0.0000 O   0  0  0  0  0  0  0  0  0  0  0  0
   -2.8579   -2.4750    0.0000 C   0  0  0  0  0  0  0  0  0  0  0  0
   -2.1434   -2.8875    0.0000 C   0  0  0  0  0  0  0  0  0  0  0  0
   -2.1434   -3.7125    0.0000 C   0  0  0  0  0  0  0  0  0  0  0  0
   -2.8579   -4.1250    0.0000 C   0  0  0  0  0  0  0  0  0  0  0  0
   -2.8579   -4.9500    0.0000 F   0  0  0  0  0  0  0  0  0  0  0  0
   -3.5724   -3.7125    0.0000 C   0  0  0  0  0  0  0  0  0  0  0  0
   -3.5724   -2.8875    0.0000 C   0  0  0  0  0  0  0  0  0  0  0  0
   -4.2868   -2.4750    0.0000 C   0  0  0  0  0  0  0  0  0  0  0  0
   -4.2868   -1.6500    0.0000 N   0  0  0  0  0  0  0  0  0  0  0  0
   -5.0013   -1.2375    0.0000 C   0  0  0  0  0  0  0  0  0  0  0  0
   -5.7158   -1.6500    0.0000 C   0  0  0  0  0  0  0  0  0  0  0  0
   -6.4302   -1.2375    0.0000 N   0  0  0  0  0  0  0  0  0  0  0  0
   -7.1447   -1.6500    0.0000 C   0  0  0  0  0  0  0  0  0  0  0  0
   -7.1447   -2.4750    0.0000 C   0  0  0  0  0  0  0  0  0  0  0  0
   -7.8592   -2.8875    0.0000 C   0  0  0  0  0  0  0  0  0  0  0  0
   -8.5737   -2.4750    0.0000 C   0  0  0  0  0  0  0  0  0  0  0  0
   -9.2881   -2.8875    0.0000 C   0  0  0  0  0  0  0  0  0  0  0  0
   -8.5737   -1.6500    0.0000 C   0  0  0  0  0  0  0  0  0  0  0  0
   -7.8592   -1.2375    0.0000 C   0  0  0  0  0  0  0  0  0  0  0  0
   -7.8592   -0.4125    0.0000 C   0  0  0  0  0  0  0  0  0  0  0  0
   -7.1447    0.0000    0.0000 O   0  0  0  0  0  0  0  0  0  0  0  0
   -8.5737    0.0000    0.0000 O   0  0  0  0  0  0  0  0  0  0  0  0
   -5.7158   -2.4750    0.0000 C   0  0  0  0  0  0  0  0  0  0  0  0
   -5.0013   -2.8875    0.0000 C   0  0  0  0  0  0  0  0  0  0  0  0
   -5.0013   -3.7125    0.0000 C   0  0  0  0  0  0  0  0  0  0  0  0
  1  2  1  0  0  0  0
  2  3  1  0  0  0  0
  3  4  4  0  0  0  0
  4  5  4  0  0  0  0
  5  6  4  0  0  0  0
  6  7  1  0  0  0  0
  6  8  4  0  0  0  0
  8  9  4  0  0  0  0
  3  9  4  0  0  0  0
  9 10  1  0  0  0  0
 10 11  4  0  0  0  0
 11 12  4  0  0  0  0
 12 13  4  0  0  0  0
 13 14  1  0  0  0  0
 14 15  1  0  0  0  0
 15 16  4  0  0  0  0
 16 17  4  0  0  0  0
 17 18  4  0  0  0  0
 18 19  1  0  0  0  0
 18 20  4  0  0  0  0
 20 21  4  0  0  0  0
 15 21  4  0  0  0  0
 21 22  1  0  0  0  0
 22 23  2  0  0  0  0
 22 24  1  0  0  0  0
 13 25  4  0  0  0  0
 25 26  4  0  0  0  0
 10 26  4  0  0  0  0
 26 27  1  0  0  0  0
M  END
> <IC50(uM)>
0.046

> <Outcome>
1.0

> <BindingDB ID>
220029

> <BindingDB MonomerID>
102500

> <BindingDB Ligand Name>
US8536165, 117

> <Curation/DataSource>
US Patent

> <Article DOI>
?

> <PMID>
?

> <Patent Number>
US8536165

> <Authors>
Castro Palomino Laria, JC; Terricabras Belart, E; Erra Sola, M; Navarro Romero, E; Fonquerna Pou, S; Cardus Figueras, A; Lozoya Toribio, ME

> <Link to Ligand in BindingDB>
http://www.bindingdb.org/bind/chemsearch/marvin/MolStructure.jsp?monomerid=102500

> <Link to Ligand-Target Pair in BindingDB>
http://www.bindingdb.org/jsp/dbsearch/PrimarySearch_ki.jsp?energyterm=kJ/mole&tag=r21&monomerid=102500&enzyme=Dihydroorotate+dehydrogenase&column=ki&startPg=0&Increment=50&submit=Search

> <PubChem CID>
57479023

> <PubChem SID>
172097791

$$$$

  Mrv2115 07222212352D          

 36 38  0  0  0  0            999 V2000
   -1.4289    8.0036    0.0000 C   0  0  0  0  0  0  0  0  0  0  0  0
   -0.7145    8.4161    0.0000 C   0  0  0  0  0  0  0  0  0  0  0  0
   -0.7145    9.2411    0.0000 C   0  0  0  0  0  0  0  0  0  0  0  0
   -0.0000    9.6536    0.0000 C   0  0  0  0  0  0  0  0  0  0  0  0
    0.7145    9.2411    0.0000 C   0  0  0  0  0  0  0  0  0  0  0  0
    0.7145    8.4161    0.0000 C   0  0  0  0  0  0  0  0  0  0  0  0
    1.4289    8.0036    0.0000 F   0  0  0  0  0  0  0  0  0  0  0  0
   -0.0000    8.0036    0.0000 C   0  0  0  0  0  0  0  0  0  0  0  0
   -0.0000    7.1786    0.0000 N   0  0  0  0  0  0  0  0  0  0  0  0
    0.7145    6.7661    0.0000 C   0  0  0  0  0  0  0  0  0  0  0  0
    1.4289    7.1786    0.0000 O   0  0  0  0  0  0  0  0  0  0  0  0
    0.7145    5.9411    0.0000 C   0  0  0  0  0  0  0  0  0  0  0  0
    1.4289    5.5286    0.0000 C   0  0  0  0  0  0  0  0  0  0  0  0
    1.4289    4.7036    0.0000 C   0  0  0  0  0  0  0  0  0  0  0  0
    2.1434    4.2911    0.0000 F   0  0  0  0  0  0  0  0  0  0  0  0
    0.7145    4.2911    0.0000 C   0  0  0  0  0  0  0  0  0  0  0  0
    0.7145    3.4661    0.0000 N   0  0  0  0  0  0  0  0  0  0  0  0
    0.0470    2.9812    0.0000 N   0  0  0  0  0  0  0  0  0  0  0  0
    0.3020    2.1965    0.0000 C   0  0  0  0  0  0  0  0  0  0  0  0
   -0.1830    1.5291    0.0000 C   0  0  0  0  0  0  0  0  0  0  0  0
   -0.6679    0.8617    0.0000 F   0  0  0  0  0  0  0  0  0  0  0  0
   -0.8504    2.0140    0.0000 F   0  0  0  0  0  0  0  0  0  0  0  0
    0.4845    1.0442    0.0000 F   0  0  0  0  0  0  0  0  0  0  0  0
    1.1270    2.1965    0.0000 N   0  0  0  0  0  0  0  0  0  0  0  0
    1.6119    1.5291    0.0000 C   0  0  0  0  0  0  0  0  0  0  0  0
    1.3819    2.9812    0.0000 C   0  0  0  0  0  0  0  0  0  0  0  0
    2.1665    3.2361    0.0000 O   0  0  0  0  0  0  0  0  0  0  0  0
    0.0000    4.7036    0.0000 C   0  0  0  0  0  0  0  0  0  0  0  0
   -0.0000    5.5286    0.0000 C   0  0  0  0  0  0  0  0  0  0  0  0
   -0.7145    5.9411    0.0000 O   0  0  0  0  0  0  0  0  0  0  0  0
   -1.4289    5.5286    0.0000 C   0  0  0  0  0  0  0  0  0  0  0  0
   -1.4289    4.7036    0.0000 C   0  0  0  0  0  0  0  0  0  0  0  0
   -2.1434    5.9411    0.0000 C   0  0  0  0  0  0  0  0  0  0  0  0
   -1.7309    6.6555    0.0000 F   0  0  0  0  0  0  0  0  0  0  0  0
   -2.5559    5.2266    0.0000 F   0  0  0  0  0  0  0  0  0  0  0  0
   -2.8579    6.3536    0.0000 F   0  0  0  0  0  0  0  0  0  0  0  0
  1  2  1  0  0  0  0
  2  3  4  0  0  0  0
  3  4  4  0  0  0  0
  4  5  4  0  0  0  0
  5  6  4  0  0  0  0
  6  7  1  0  0  0  0
  6  8  4  0  0  0  0
  2  8  4  0  0  0  0
  8  9  1  0  0  0  0
  9 10  1  0  0  0  0
 10 11  2  0  0  0  0
 10 12  1  0  0  0  0
 12 13  4  0  0  0  0
 13 14  4  0  0  0  0
 14 15  1  0  0  0  0
 14 16  4  0  0  0  0
 16 17  1  0  0  0  0
 17 18  4  0  0  0  0
 18 19  4  0  0  0  0
 19 20  1  0  0  0  0
 20 21  1  0  0  0  0
 20 22  1  0  0  0  0
 20 23  1  0  0  0  0
 19 24  4  0  0  0  0
 24 25  1  0  0  0  0
 24 26  4  0  0  0  0
 17 26  4  0  0  0  0
 26 27  2  0  0  0  0
 16 28  4  0  0  0  0
 28 29  4  0  0  0  0
 12 29  4  0  0  0  0
 29 30  1  0  0  0  0
 30 31  1  0  0  0  0
 31 32  1  0  0  0  0
 31 33  1  0  0  0  0
 33 34  1  0  0  0  0
 33 35  1  0  0  0  0
 33 36  1  0  0  0  0
M  END
> <IC50(uM)>
0.015

> <Outcome>
1.0

> <BindingDB ID>
972526; 1098680

> <BindingDB MonomerID>
470401

> <BindingDB Ligand Name>
5-fluoro-N-(2-fluoro-6-methylphenyl)-4-[4-methyl-5-oxo-3-(trifluoromethyl)-4,5-dihydro-1H-1,2,4-triazol-1-yl]-2-{[(2S)-1,1,1-trifluoropropan-2-yl]oxy}benzamide::US10815215, Example 60; 5-fluoro-N-(2-fluoro-6-methylphenyl)-4-[4-methyl-5-oxo-3-(trifluoromethyl)-4,5-dihydro-1H-1,2,4-triazol-1-yl]-2-{[(2S)-1,1,1-trifluoropropan-2-yl]oxy}benzamide::US10815215, Example 60::US11130745, Example 60

> <Curation/DataSource>
US Patent

> <Article DOI>
?

> <PMID>
?

> <Patent Number>
US10815215; US11130745

> <Authors>
Gradl, SN; Nguyen, D; Eis, K; Gunther, J; Stellfeld, T; Janzer, A; Christian, S; Muller, T; Sheikh, SE; Zhou, HJ; Zhao, C; Sykes, DB; Ferrara, SJ; Liu, K; Krober, M; Merz, C; Niehues, M; Schafer, M; Zimmermann, K; Nising, CF; Gradl, SN; Nguyen, D; Eis, K; Gunther, J; Stellfeld, T; Janzer, A; Christian, S; Muller, T; Sheikh, SE; Sykes, DB; Ferrara, SJ; Krober, M; Merz, C; Niehues, M; Schafer, M; Zimmermann, K; Nising, CF

> <Link to Ligand in BindingDB>
http://www.bindingdb.org/bind/chemsearch/marvin/MolStructure.jsp?monomerid=470401

> <Link to Ligand-Target Pair in BindingDB>
http://www.bindingdb.org/jsp/dbsearch/PrimarySearch_ki.jsp?energyterm=kJ/mole&tag=r21&monomerid=470401&enzyme=Dihydroorotate+dehydrogenase&column=ki&startPg=0&Increment=50&submit=Search

> <PubChem CID>
134470369

> <PubChem SID>
441609578

$$$$

  Mrv2115 07222212352D          

 33 35  0  0  0  0            999 V2000
    2.1434   -3.7125    0.0000 C   0  0  0  0  0  0  0  0  0  0  0  0
    2.8579   -4.1250    0.0000 C   0  0  0  0  0  0  0  0  0  0  0  0
    3.5724   -3.7125    0.0000 C   0  0  0  0  0  0  0  0  0  0  0  0
    4.2868   -4.1250    0.0000 C   0  0  0  0  0  0  0  0  0  0  0  0
    4.2868   -4.9500    0.0000 C   0  0  0  0  0  0  0  0  0  0  0  0
    5.0013   -3.7125    0.0000 O   0  0  0  0  0  0  0  0  0  0  0  0
    5.0013   -2.8875    0.0000 C   0  0  0  0  0  0  0  0  0  0  0  0
    4.2868   -2.4750    0.0000 C   0  0  0  0  0  0  0  0  0  0  0  0
    4.2868   -1.6500    0.0000 C   0  0  0  0  0  0  0  0  0  0  0  0
    3.5724   -1.2375    0.0000 N   0  0  0  0  0  0  0  0  0  0  0  0
    2.8187   -1.5731    0.0000 N   0  0  0  0  0  0  0  0  0  0  0  0
    2.2666   -0.9600    0.0000 C   0  0  0  0  0  0  0  0  0  0  0  0
    1.4462   -1.0462    0.0000 C   0  0  0  0  0  0  0  0  0  0  0  0
    1.1106   -1.7999    0.0000 C   0  0  0  0  0  0  0  0  0  0  0  0
    2.6791   -0.2455    0.0000 N   0  0  0  0  0  0  0  0  0  0  0  0
    2.3436    0.5082    0.0000 C   0  0  0  0  0  0  0  0  0  0  0  0
    3.4861   -0.4170    0.0000 C   0  0  0  0  0  0  0  0  0  0  0  0
    4.0992    0.1350    0.0000 O   0  0  0  0  0  0  0  0  0  0  0  0
    5.0013   -1.2375    0.0000 C   0  0  0  0  0  0  0  0  0  0  0  0
    5.0013   -0.4125    0.0000 F   0  0  0  0  0  0  0  0  0  0  0  0
    5.7158   -1.6500    0.0000 C   0  0  0  0  0  0  0  0  0  0  0  0
    5.7158   -2.4750    0.0000 C   0  0  0  0  0  0  0  0  0  0  0  0
    6.4302   -2.8875    0.0000 C   0  0  0  0  0  0  0  0  0  0  0  0
    6.4302   -3.7125    0.0000 O   0  0  0  0  0  0  0  0  0  0  0  0
    7.1447   -2.4750    0.0000 N   0  0  0  0  0  0  0  0  0  0  0  0
    7.8592   -2.8875    0.0000 C   0  0  0  0  0  0  0  0  0  0  0  0
    8.5737   -2.4750    0.0000 C   0  0  0  0  0  0  0  0  0  0  0  0
    8.5737   -1.6500    0.0000 F   0  0  0  0  0  0  0  0  0  0  0  0
    9.2881   -2.8875    0.0000 C   0  0  0  0  0  0  0  0  0  0  0  0
    9.2881   -3.7125    0.0000 C   0  0  0  0  0  0  0  0  0  0  0  0
    8.5737   -4.1250    0.0000 C   0  0  0  0  0  0  0  0  0  0  0  0
    7.8592   -3.7125    0.0000 C   0  0  0  0  0  0  0  0  0  0  0  0
    7.1447   -4.1250    0.0000 F   0  0  0  0  0  0  0  0  0  0  0  0
  1  2  1  0  0  0  0
  2  3  1  0  0  0  0
  3  4  1  0  0  0  0
  4  5  1  0  0  0  0
  4  6  1  0  0  0  0
  6  7  1  0  0  0  0
  7  8  4  0  0  0  0
  8  9  4  0  0  0  0
  9 10  1  0  0  0  0
 10 11  4  0  0  0  0
 11 12  4  0  0  0  0
 12 13  1  0  0  0  0
 13 14  1  0  0  0  0
 12 15  4  0  0  0  0
 15 16  1  0  0  0  0
 15 17  4  0  0  0  0
 10 17  4  0  0  0  0
 17 18  2  0  0  0  0
  9 19  4  0  0  0  0
 19 20  1  0  0  0  0
 19 21  4  0  0  0  0
 21 22  4  0  0  0  0
  7 22  4  0  0  0  0
 22 23  1  0  0  0  0
 23 24  2  0  0  0  0
 23 25  1  0  0  0  0
 25 26  1  0  0  0  0
 26 27  4  0  0  0  0
 27 28  1  0  0  0  0
 27 29  4  0  0  0  0
 29 30  4  0  0  0  0
 30 31  4  0  0  0  0
 31 32  4  0  0  0  0
 26 32  4  0  0  0  0
 32 33  1  0  0  0  0
M  END
> <IC50(uM)>
0.015300000000000001

> <Outcome>
1.0

> <BindingDB ID>
1098619; 972465; 972466; 1098620

> <BindingDB MonomerID>
470359

> <BindingDB Ligand Name>
N-(2,6-difluorophenyl)-4-(3-ethyl-4-methyl-5-oxo-4,5-dihydro-1H-1,2,4-triazol-1-yl)-5-fluoro-2-[(2S)-pentan-2-yloxy]benzamide::US10815215, Example 18::US11130745, Example 18; N-(2,6-difluorophenyl)-4-(3-ethyl-4-methyl-5-oxo-4,5-dihydro-1H-1,2,4-triazol-1-yl)-5-fluoro-2-[(2S)-pentan-2-yloxy]benzamide::US10815215, Example 18

> <Curation/DataSource>
US Patent

> <Article DOI>
?

> <PMID>
?

> <Patent Number>
US11130745; US10815215

> <Authors>
Gradl, SN; Nguyen, D; Eis, K; Gunther, J; Stellfeld, T; Janzer, A; Christian, S; Muller, T; Sheikh, SE; Sykes, DB; Ferrara, SJ; Krober, M; Merz, C; Niehues, M; Schafer, M; Zimmermann, K; Nising, CF; Gradl, SN; Nguyen, D; Eis, K; Gunther, J; Stellfeld, T; Janzer, A; Christian, S; Muller, T; Sheikh, SE; Zhou, HJ; Zhao, C; Sykes, DB; Ferrara, SJ; Liu, K; Krober, M; Merz, C; Niehues, M; Schafer, M; Zimmermann, K; Nising, CF

> <Link to Ligand in BindingDB>
http://www.bindingdb.org/bind/chemsearch/marvin/MolStructure.jsp?monomerid=470359

> <Link to Ligand-Target Pair in BindingDB>
http://www.bindingdb.org/jsp/dbsearch/PrimarySearch_ki.jsp?energyterm=kJ/mole&tag=r21&monomerid=470359&enzyme=Dihydroorotate+dehydrogenase&column=ki&startPg=0&Increment=50&submit=Search

> <PubChem CID>
134470050

> <PubChem SID>
441609536

$$$$

  Mrv2115 07222212352D          

 24 26  0  0  0  0            999 V2000
    4.7812    1.9354    0.0000 C   0  0  0  0  0  0  0  0  0  0  0  0
    4.0668    2.3479    0.0000 C   0  0  0  0  0  0  0  0  0  0  0  0
    3.3523    1.9354    0.0000 C   0  0  0  0  0  0  0  0  0  0  0  0
    3.3523    1.1104    0.0000 C   0  0  0  0  0  0  0  0  0  0  0  0
    4.0668    0.6979    0.0000 C   0  0  0  0  0  0  0  0  0  0  0  0
    2.6378    0.6979    0.0000 N   0  0  0  0  0  0  0  0  0  0  0  0
    1.9233    1.1104    0.0000 C   0  0  0  0  0  0  0  0  0  0  0  0
    1.1387    0.8555    0.0000 N   0  0  0  0  0  0  0  0  0  0  0  0
    0.6538    1.5229    0.0000 C   0  0  0  0  0  0  0  0  0  0  0  0
    1.1387    2.1904    0.0000 N   0  0  0  0  0  0  0  0  0  0  0  0
    1.9233    1.9354    0.0000 N   0  0  0  0  0  0  0  0  0  0  0  0
    2.6378    2.3479    0.0000 C   0  0  0  0  0  0  0  0  0  0  0  0
    2.6378    3.1729    0.0000 N   0  0  0  0  0  0  0  0  0  0  0  0
    3.3523    3.5854    0.0000 C   0  0  0  0  0  0  0  0  0  0  0  0
    3.3523    4.4104    0.0000 C   0  0  0  0  0  0  0  0  0  0  0  0
    4.0668    4.8229    0.0000 C   0  0  0  0  0  0  0  0  0  0  0  0
    4.7812    4.4104    0.0000 C   0  0  0  0  0  0  0  0  0  0  0  0
    5.4957    4.8229    0.0000 O   0  0  0  0  0  0  0  0  0  0  0  0
    5.4957    5.6479    0.0000 C   0  0  0  0  0  0  0  0  0  0  0  0
    5.4957    6.4729    0.0000 F   0  0  0  0  0  0  0  0  0  0  0  0
    6.3207    5.6479    0.0000 F   0  0  0  0  0  0  0  0  0  0  0  0
    4.6707    5.6479    0.0000 F   0  0  0  0  0  0  0  0  0  0  0  0
    4.7812    3.5854    0.0000 C   0  0  0  0  0  0  0  0  0  0  0  0
    4.0668    3.1729    0.0000 C   0  0  0  0  0  0  0  0  0  0  0  0
  1  2  1  0  0  0  0
  2  3  1  0  0  0  0
  3  4  4  0  0  0  0
  4  5  1  0  0  0  0
  4  6  4  0  0  0  0
  6  7  4  0  0  0  0
  7  8  4  0  0  0  0
  8  9  4  0  0  0  0
  9 10  4  0  0  0  0
 10 11  4  0  0  0  0
  7 11  4  0  0  0  0
 11 12  4  0  0  0  0
  3 12  4  0  0  0  0
 12 13  1  0  0  0  0
 13 14  1  0  0  0  0
 14 15  4  0  0  0  0
 15 16  4  0  0  0  0
 16 17  4  0  0  0  0
 17 18  1  0  0  0  0
 18 19  1  0  0  0  0
 19 20  1  0  0  0  0
 19 21  1  0  0  0  0
 19 22  1  0  0  0  0
 17 23  4  0  0  0  0
 23 24  4  0  0  0  0
 14 24  4  0  0  0  0
M  END
> <IC50(uM)>
100.0

> <Outcome>
0.0

> <BindingDB ID>
50643202

> <BindingDB MonomerID>
50345438

> <BindingDB Ligand Name>
6-ethyl-5-methyl-N-(4-(trifluoromethoxy)phenyl)-[1,2,4]triazolo[1,5-a]pyrimidin-7-amine::CHEMBL1784715::US9238653, Table 5, Compound 9

> <Curation/DataSource>
ChEMBL

> <Article DOI>
10.1021/jm200265b

> <PMID>
21517059

> <Patent Number>
?

> <Authors>
Gujjar, R; El Mazouni, F; White, KL; White, J; Creason, S; Shackleford, DM; Deng, X; Charman, WN; Bathurst, I; Burrows, J; Floyd, DM; Matthews, D; Buckner, FS; Charman, SA; Phillips, MA; Rathod, PK

> <Link to Ligand in BindingDB>
http://www.bindingdb.org/bind/chemsearch/marvin/MolStructure.jsp?monomerid=50345438

> <Link to Ligand-Target Pair in BindingDB>
http://www.bindingdb.org/jsp/dbsearch/PrimarySearch_ki.jsp?energyterm=kJ/mole&tag=r21&monomerid=50345438&enzyme=Dihydroorotate+dehydrogenase&column=ki&startPg=0&Increment=50&submit=Search

> <PubChem CID>
46352384

> <PubChem SID>
131348374

$$$$

  Mrv2115 07222212352D          

 22 23  0  0  0  0            999 V2000
    2.5878   -3.3454    0.0000 C   0  0  0  0  0  0  0  0  0  0  0  0
    2.8579   -4.1250    0.0000 C   0  0  0  0  0  0  0  0  0  0  0  0
    3.6680   -4.2809    0.0000 O   0  0  0  0  0  0  0  0  0  0  0  0
    3.9381   -5.0605    0.0000 C   0  0  0  0  0  0  0  0  0  0  0  0
    3.3980   -5.6841    0.0000 O   0  0  0  0  0  0  0  0  0  0  0  0
    4.7482   -5.2164    0.0000 C   0  0  0  0  0  0  0  0  0  0  0  0
    5.0182   -5.9959    0.0000 C   0  0  0  0  0  0  0  0  0  0  0  0
    5.8284   -6.1518    0.0000 N   0  0  0  0  0  0  0  0  0  0  0  0
    6.0984   -6.9314    0.0000 C   0  0  0  0  0  0  0  0  0  0  0  0
    6.9086   -7.0873    0.0000 C   0  0  0  0  0  0  0  0  0  0  0  0
    7.1786   -7.8668    0.0000 C   0  0  0  0  0  0  0  0  0  0  0  0
    6.6385   -8.4905    0.0000 C   0  0  0  0  0  0  0  0  0  0  0  0
    6.7406   -9.3092    0.0000 N   0  0  0  0  0  0  0  0  0  0  0  0
    5.9935   -9.6592    0.0000 C   0  0  0  0  0  0  0  0  0  0  0  0
    5.4298   -9.0569    0.0000 N   0  0  0  0  0  0  0  0  0  0  0  0
    5.8284   -8.3346    0.0000 C   0  0  0  0  0  0  0  0  0  0  0  0
    5.5583   -7.5550    0.0000 C   0  0  0  0  0  0  0  0  0  0  0  0
    5.2883   -4.5927    0.0000 C   0  0  0  0  0  0  0  0  0  0  0  0
    5.0182   -3.8132    0.0000 O   0  0  0  0  0  0  0  0  0  0  0  0
    6.0984   -4.7486    0.0000 O   0  0  0  0  0  0  0  0  0  0  0  0
    6.6385   -4.1250    0.0000 C   0  0  0  0  0  0  0  0  0  0  0  0
    7.4486   -4.2809    0.0000 C   0  0  0  0  0  0  0  0  0  0  0  0
  1  2  1  0  0  0  0
  2  3  1  0  0  0  0
  3  4  1  0  0  0  0
  4  5  2  0  0  0  0
  4  6  1  0  0  0  0
  7  6  1  4  0  0  0
  7  8  2  0  0  0  0
  8  9  1  0  0  0  0
  9 10  4  0  0  0  0
 10 11  4  0  0  0  0
 11 12  4  0  0  0  0
 12 13  4  0  0  0  0
 13 14  4  0  0  0  0
 14 15  4  0  0  0  0
 15 16  4  0  0  0  0
 12 16  4  0  0  0  0
 16 17  4  0  0  0  0
  9 17  4  0  0  0  0
  6 18  1  0  0  0  0
 18 19  2  0  0  0  0
 18 20  1  0  0  0  0
 20 21  1  0  0  0  0
 21 22  1  0  0  0  0
M  STY  1   1 DAT
M  SAL   1  1  15
M  SDT   1 MRV_IMPLICIT_H                                        
M  SDD   1     0.5304   -0.4125    DR    ALL  0       0  
M  SED   1 IMPL_H1
M  END
> <IC50(uM)>
500.0

> <Outcome>
0.0

> <BindingDB ID>
26833

> <BindingDB MonomerID>
14705

> <BindingDB Ligand Name>
1,3-diethyl 2-[(1H-1,3-benzodiazol-5-ylamino)methylidene]propanedioate::2-[(1H-Benzimidazol-5-ylamino)-methylene]-malonic acid diethyl ester::bicyclic compound 10

> <Curation/DataSource>
Curated from the literature by BindingDB

> <Article DOI>
10.1021/jm060687j

> <PMID>
17228860

> <Patent Number>
?

> <Authors>
Heikkila, T; Ramsey, C; Davies, M; Galtier, C; Stead, AM; Johnson, AP; Fishwick, CW; Boa, AN; McConkey, GA

> <Link to Ligand in BindingDB>
http://www.bindingdb.org/bind/chemsearch/marvin/MolStructure.jsp?monomerid=14705

> <Link to Ligand-Target Pair in BindingDB>
http://www.bindingdb.org/jsp/dbsearch/PrimarySearch_ki.jsp?energyterm=kJ/mole&tag=r21&monomerid=14705&enzyme=Dihydroorotate+dehydrogenase&column=ki&startPg=0&Increment=50&submit=Search

> <PubChem CID>
53661493

> <PubChem SID>
46515035

$$$$

  Mrv2115 07222212352D          

 21 22  0  0  0  0            999 V2000
    0.0000   -1.6500    0.0000 C   0  0  0  0  0  0  0  0  0  0  0  0
    0.0000   -2.4750    0.0000 C   0  0  0  0  0  0  0  0  0  0  0  0
    0.7145   -2.8875    0.0000 C   0  0  0  0  0  0  0  0  0  0  0  0
    1.4289   -2.4750    0.0000 C   0  0  0  0  0  0  0  0  0  0  0  0
    1.4289   -1.6500    0.0000 O   0  0  0  0  0  0  0  0  0  0  0  0
    2.1434   -2.8875    0.0000 N   0  0  0  0  0  0  0  0  0  0  0  0
    2.8579   -2.4750    0.0000 C   0  0  0  0  0  0  0  0  0  0  0  0
    2.8579   -1.6500    0.0000 C   0  0  0  0  0  0  0  0  0  0  0  0
    3.5724   -1.2375    0.0000 C   0  0  0  0  0  0  0  0  0  0  0  0
    4.2868   -1.6500    0.0000 C   0  0  0  0  0  0  0  0  0  0  0  0
    5.0013   -1.2375    0.0000 Cl  0  0  0  0  0  0  0  0  0  0  0  0
    4.2868   -2.4750    0.0000 C   0  0  0  0  0  0  0  0  0  0  0  0
    5.0013   -2.8875    0.0000 Cl  0  0  0  0  0  0  0  0  0  0  0  0
    3.5724   -2.8875    0.0000 C   0  0  0  0  0  0  0  0  0  0  0  0
    0.7145   -3.7125    0.0000 C   0  0  0  0  0  0  0  0  0  0  0  0
    0.0000   -4.1250    0.0000 C   0  0  0  0  0  0  0  0  0  0  0  0
   -0.7145   -3.7125    0.0000 C   0  0  0  0  0  0  0  0  0  0  0  0
   -0.7145   -2.8875    0.0000 C   0  0  0  0  0  0  0  0  0  0  0  0
   -1.4289   -2.4750    0.0000 N   0  3  0  0  0  0  0  0  0  0  0  0
   -2.1434   -2.8875    0.0000 O   0  0  0  0  0  0  0  0  0  0  0  0
   -1.4289   -1.6500    0.0000 O   0  5  0  0  0  0  0  0  0  0  0  0
  1  2  1  0  0  0  0
  2  3  4  0  0  0  0
  3  4  1  0  0  0  0
  4  5  2  0  0  0  0
  4  6  1  0  0  0  0
  6  7  1  0  0  0  0
  7  8  4  0  0  0  0
  8  9  4  0  0  0  0
  9 10  4  0  0  0  0
 10 11  1  0  0  0  0
 10 12  4  0  0  0  0
 12 13  1  0  0  0  0
 12 14  4  0  0  0  0
  7 14  4  0  0  0  0
  3 15  4  0  0  0  0
 15 16  4  0  0  0  0
 16 17  4  0  0  0  0
 17 18  4  0  0  0  0
  2 18  4  0  0  0  0
 18 19  1  0  0  0  0
 19 20  2  0  0  0  0
 19 21  1  0  0  0  0
M  CHG  2  19   1  21  -1
M  END
> <IC50(uM)>
72.0

> <Outcome>
0.0

> <BindingDB ID>
28102

> <BindingDB MonomerID>
15354

> <BindingDB Ligand Name>
Asinex compound no. 9::N-(3,4-dichlorophenyl)-2-methyl-3-nitrobenzamide

> <Curation/DataSource>
Curated from the literature by BindingDB

> <Article DOI>
10.1074/jbc.M501100200

> <PMID>
15795226

> <Patent Number>
?

> <Authors>
Baldwin, J; Michnoff, CH; Malmquist, NA; White, J; Roth, MG; Rathod, PK; Phillips, MA

> <Link to Ligand in BindingDB>
http://www.bindingdb.org/bind/chemsearch/marvin/MolStructure.jsp?monomerid=15354

> <Link to Ligand-Target Pair in BindingDB>
http://www.bindingdb.org/jsp/dbsearch/PrimarySearch_ki.jsp?energyterm=kJ/mole&tag=r21&monomerid=15354&enzyme=Dihydroorotate+Dehydrogenase+%28DHODH%29&column=ki&startPg=0&Increment=50&submit=Search

> <PubChem CID>
773731

> <PubChem SID>
46515654

$$$$

  Mrv2115 07222212352D          

 37 41  0  0  0  0            999 V2000
   -1.8659    1.4455    0.0000 C   0  0  0  0  0  0  0  0  0  0  0  0
   -2.6909    1.4455    0.0000 C   0  0  0  0  0  0  0  0  0  0  0  0
   -3.1034    0.7310    0.0000 O   0  0  0  0  0  0  0  0  0  0  0  0
   -2.6909    0.0165    0.0000 C   0  0  0  0  0  0  0  0  0  0  0  0
   -1.8659    0.0165    0.0000 C   0  0  0  0  0  0  0  0  0  0  0  0
   -1.4534   -0.6979    0.0000 C   0  0  0  0  0  0  0  0  0  0  0  0
   -0.6284   -0.6979    0.0000 N   0  0  0  0  0  0  0  0  0  0  0  0
   -0.1435   -1.3654    0.0000 N   0  0  0  0  0  0  0  0  0  0  0  0
    0.6411   -1.1104    0.0000 C   0  0  0  0  0  0  0  0  0  0  0  0
    0.6411   -0.2854    0.0000 N   0  0  0  0  0  0  0  0  0  0  0  0
   -0.1435   -0.0305    0.0000 C   0  0  0  0  0  0  0  0  0  0  0  0
   -0.3984    0.7541    0.0000 O   0  0  0  0  0  0  0  0  0  0  0  0
    1.3556    0.1271    0.0000 C   0  0  0  0  0  0  0  0  0  0  0  0
    2.0701   -0.2854    0.0000 C   0  0  0  0  0  0  0  0  0  0  0  0
    2.0701   -1.1104    0.0000 C   0  0  0  0  0  0  0  0  0  0  0  0
    1.3556   -1.5229    0.0000 C   0  0  0  0  0  0  0  0  0  0  0  0
   -1.8659   -1.4124    0.0000 C   0  0  0  0  0  0  0  0  0  0  0  0
   -1.4534   -2.1269    0.0000 F   0  0  0  0  0  0  0  0  0  0  0  0
   -2.6909   -1.4124    0.0000 C   0  0  0  0  0  0  0  0  0  0  0  0
   -3.1034   -0.6979    0.0000 C   0  0  0  0  0  0  0  0  0  0  0  0
   -3.9284   -0.6979    0.0000 C   0  0  0  0  0  0  0  0  0  0  0  0
   -4.3409    0.0165    0.0000 O   0  0  0  0  0  0  0  0  0  0  0  0
   -4.3409   -1.4124    0.0000 N   0  0  0  0  0  0  0  0  0  0  0  0
   -3.9284   -2.1269    0.0000 C   0  0  0  0  0  0  0  0  0  0  0  0
   -3.1034   -2.1269    0.0000 C   0  0  0  0  0  0  0  0  0  0  0  0
   -2.6909   -2.8414    0.0000 C   0  0  0  0  0  0  0  0  0  0  0  0
   -1.8659   -2.8414    0.0000 F   0  0  0  0  0  0  0  0  0  0  0  0
   -3.1034   -3.5558    0.0000 C   0  0  0  0  0  0  0  0  0  0  0  0
   -3.9284   -3.5558    0.0000 C   0  0  0  0  0  0  0  0  0  0  0  0
   -4.3409   -2.8414    0.0000 C   0  0  0  0  0  0  0  0  0  0  0  0
   -5.1659   -2.8414    0.0000 Cl  0  0  0  0  0  0  0  0  0  0  0  0
   -3.1034    2.1599    0.0000 C   0  0  0  0  0  0  0  0  0  0  0  0
   -3.9284    2.1599    0.0000 C   0  0  0  0  0  0  0  0  0  0  0  0
   -4.3409    2.8744    0.0000 C   0  0  0  0  0  0  0  0  0  0  0  0
   -3.9284    3.5889    0.0000 C   0  0  0  0  0  0  0  0  0  0  0  0
   -3.1034    3.5889    0.0000 C   0  0  0  0  0  0  0  0  0  0  0  0
   -2.6909    2.8744    0.0000 C   0  0  0  0  0  0  0  0  0  0  0  0
  1  2  1  0  0  0  0
  2  3  1  0  0  0  0
  3  4  1  0  0  0  0
  4  5  4  0  0  0  0
  5  6  4  0  0  0  0
  6  7  1  0  0  0  0
  7  8  4  0  0  0  0
  8  9  4  0  0  0  0
  9 10  4  0  0  0  0
 10 11  4  0  0  0  0
  7 11  4  0  0  0  0
 11 12  2  0  0  0  0
 10 13  1  0  0  0  0
 13 14  1  0  0  0  0
 14 15  1  0  0  0  0
 15 16  1  0  0  0  0
  9 16  1  0  0  0  0
  6 17  4  0  0  0  0
 17 18  1  0  0  0  0
 17 19  4  0  0  0  0
 19 20  4  0  0  0  0
  4 20  4  0  0  0  0
 20 21  1  0  0  0  0
 21 22  2  0  0  0  0
 21 23  1  0  0  0  0
 23 24  1  0  0  0  0
 24 25  4  0  0  0  0
 25 26  4  0  0  0  0
 26 27  1  0  0  0  0
 26 28  4  0  0  0  0
 28 29  4  0  0  0  0
 29 30  4  0  0  0  0
 24 30  4  0  0  0  0
 30 31  1  0  0  0  0
  2 32  1  0  0  0  0
 32 33  1  0  0  0  0
 33 34  1  0  0  0  0
 34 35  1  0  0  0  0
 35 36  1  0  0  0  0
 36 37  1  0  0  0  0
 32 37  1  0  0  0  0
M  END
> <IC50(uM)>
0.04

> <Outcome>
1.0

> <BindingDB ID>
1020558

> <BindingDB MonomerID>
490497

> <BindingDB Ligand Name>
N-(2-chloro-5-fluorophenyl)-2-[(1S)-1-cyclohexylethoxy]-5-fluoro-4-(3-oxo-5,6,7,8-tetrahydro[1,2,4]triazolo[4,3-a]pyridin-2(3H)-yl)benzamide::US10968216, Example 165

> <Curation/DataSource>
US Patent

> <Article DOI>
?

> <PMID>
?

> <Patent Number>
US10968216

> <Authors>
Gradl, SN; Nguyen, D; Eis, K; Gunther, J; Stellfeld, T; Janzer, A; Christian, S; Mueller, T; Sheikh, SE; Zhou, HJ; Zhao, C; Sykes, DB; Ferrara, SJ; Liu, K; Herbert, SA; Merz, C; Niehues, M; Nising, CF; Schafer, M; Zimmermann, K; Knablein, J; Thede, K; Faupel, T

> <Link to Ligand in BindingDB>
http://www.bindingdb.org/bind/chemsearch/marvin/MolStructure.jsp?monomerid=490497

> <Link to Ligand-Target Pair in BindingDB>
http://www.bindingdb.org/jsp/dbsearch/PrimarySearch_ki.jsp?energyterm=kJ/mole&tag=r21&monomerid=490497&enzyme=Dihydroorotate+dehydrogenase&column=ki&startPg=0&Increment=50&submit=Search

> <PubChem CID>
142335850

> <PubChem SID>
447117224

$$$$

  Mrv2115 07222212352D          

 23 25  0  0  0  0            999 V2000
    0.1902   -3.8567    0.0000 C   0  0  0  0  0  0  0  0  0  0  0  0
    0.3617   -3.0498    0.0000 C   0  0  0  0  0  0  0  0  0  0  0  0
   -0.1903   -2.4367    0.0000 C   0  0  0  0  0  0  0  0  0  0  0  0
   -1.0108   -2.5229    0.0000 C   0  0  0  0  0  0  0  0  0  0  0  0
   -1.4957   -1.8555    0.0000 C   0  0  0  0  0  0  0  0  0  0  0  0
   -2.3162   -1.9417    0.0000 C   0  0  0  0  0  0  0  0  0  0  0  0
   -2.8011   -1.2743    0.0000 C   0  0  0  0  0  0  0  0  0  0  0  0
   -2.4655   -0.5206    0.0000 C   0  0  0  0  0  0  0  0  0  0  0  0
   -2.9505    0.1468    0.0000 C   0  0  0  0  0  0  0  0  0  0  0  0
   -3.4354    0.8143    0.0000 F   0  0  0  0  0  0  0  0  0  0  0  0
   -3.6179   -0.3381    0.0000 F   0  0  0  0  0  0  0  0  0  0  0  0
   -2.2830    0.6318    0.0000 F   0  0  0  0  0  0  0  0  0  0  0  0
   -1.6451   -0.4344    0.0000 N   0  0  0  0  0  0  0  0  0  0  0  0
   -1.1601   -1.1018    0.0000 C   0  0  0  0  0  0  0  0  0  0  0  0
    0.2222   -1.7222    0.0000 C   0  0  0  0  0  0  0  0  0  0  0  0
    1.0292   -1.8937    0.0000 N   0  0  0  0  0  0  0  0  0  0  0  0
    1.1154   -2.7142    0.0000 C   0  0  0  0  0  0  0  0  0  0  0  0
    1.8299   -3.1267    0.0000 C   0  0  0  0  0  0  0  0  0  0  0  0
    2.5444   -2.7142    0.0000 O   0  0  0  0  0  0  0  0  0  0  0  0
    1.8299   -3.9517    0.0000 N   0  0  0  0  0  0  0  0  0  0  0  0
    2.4133   -4.5351    0.0000 C   0  0  0  0  0  0  0  0  0  0  0  0
    1.8299   -5.1184    0.0000 C   0  0  0  0  0  0  0  0  0  0  0  0
    1.2465   -4.5351    0.0000 C   0  0  0  0  0  0  0  0  0  0  0  0
  1  2  1  0  0  0  0
  2  3  4  0  0  0  0
  3  4  1  0  0  0  0
  4  5  1  0  0  0  0
  5  6  4  0  0  0  0
  6  7  4  0  0  0  0
  7  8  4  0  0  0  0
  8  9  1  0  0  0  0
  9 10  1  0  0  0  0
  9 11  1  0  0  0  0
  9 12  1  0  0  0  0
  8 13  4  0  0  0  0
 13 14  4  0  0  0  0
  5 14  4  0  0  0  0
  3 15  4  0  0  0  0
 15 16  4  0  0  0  0
 16 17  4  0  0  0  0
  2 17  4  0  0  0  0
 17 18  1  0  0  0  0
 18 19  2  0  0  0  0
 18 20  1  0  0  0  0
 20 21  1  0  0  0  0
 21 22  1  0  0  0  0
 22 23  1  0  0  0  0
 20 23  1  0  0  0  0
M  STY  1   1 DAT
M  SAL   1  1  16
M  SDT   1 MRV_IMPLICIT_H                                        
M  SDD   1     0.5304   -0.4125    DR    ALL  0       0  
M  SED   1 IMPL_H1
M  END
> <IC50(uM)>
100.0

> <Outcome>
0.0

> <BindingDB ID>
51330097

> <BindingDB MonomerID>
50538345

> <BindingDB Ligand Name>
CHEMBL4634831

> <Curation/DataSource>
ChEMBL

> <Article DOI>
10.1021/acs.jmedchem.0c00311

> <PMID>
32248693

> <Patent Number>
?

> <Authors>
Kokkonda, S; Deng, X; White, KL; El Mazouni, F; White, J; Shackleford, DM; Katneni, K; Chiu, FCK; Barker, H; McLaren, J; Crighton, E; Chen, G; Angulo-Barturen, I; Jimenez-Diaz, MB; Ferrer, S; Huertas-Valentin, L; Martinez-Martinez, MS; Lafuente-Monasterio, MJ; Chittimalla, R; Shahi, SP; Wittlin, S; Waterson, D; Burrows, JN; Matthews, D; Tomchick, D; Rathod, PK; Palmer, MJ; Charman, SA; Phillips, MA

> <Link to Ligand in BindingDB>
http://www.bindingdb.org/bind/chemsearch/marvin/MolStructure.jsp?monomerid=50538345

> <Link to Ligand-Target Pair in BindingDB>
http://www.bindingdb.org/jsp/dbsearch/PrimarySearch_ki.jsp?energyterm=kJ/mole&tag=r21&monomerid=50538345&enzyme=Dihydroorotate+dehydrogenase&column=ki&startPg=0&Increment=50&submit=Search

> <PubChem CID>
156014232

> <PubChem SID>
442139908

$$$$

  Mrv2115 07222212352D          

 25 28  0  0  0  0            999 V2000
    3.9934    2.4750    0.0000 N   0  0  0  0  0  0  0  0  0  0  0  0
    3.2789    2.0625    0.0000 C   0  0  0  0  0  0  0  0  0  0  0  0
    2.5645    2.4750    0.0000 O   0  0  0  0  0  0  0  0  0  0  0  0
    3.2789    1.2375    0.0000 C   0  0  0  0  0  0  0  0  0  0  0  0
    3.9934    0.8250    0.0000 C   0  0  0  0  0  0  0  0  0  0  0  0
    3.9934    0.0000    0.0000 C   0  0  0  0  0  0  0  0  0  0  0  0
    3.2789   -0.4125    0.0000 C   0  0  0  0  0  0  0  0  0  0  0  0
    2.5645    0.0000    0.0000 C   0  0  0  0  0  0  0  0  0  0  0  0
    1.7798   -0.2549    0.0000 N   0  0  0  0  0  0  0  0  0  0  0  0
    1.2949    0.4125    0.0000 C   0  0  0  0  0  0  0  0  0  0  0  0
    0.4699    0.4125    0.0000 C   0  0  0  0  0  0  0  0  0  0  0  0
    0.0574   -0.3020    0.0000 C   0  0  0  0  0  0  0  0  0  0  0  0
   -0.7676   -0.3020    0.0000 C   0  0  0  0  0  0  0  0  0  0  0  0
   -1.1801    0.4125    0.0000 C   0  0  0  0  0  0  0  0  0  0  0  0
   -2.0051    0.4125    0.0000 C   0  0  0  0  0  0  0  0  0  0  0  0
   -2.4176   -0.3020    0.0000 C   0  0  0  0  0  0  0  0  0  0  0  0
   -3.2426   -0.3020    0.0000 C   0  0  0  0  0  0  0  0  0  0  0  0
   -3.6551    0.4125    0.0000 C   0  0  0  0  0  0  0  0  0  0  0  0
   -4.4801    0.4125    0.0000 N   0  0  0  0  0  0  0  0  0  0  0  0
   -3.2426    1.1270    0.0000 N   0  0  0  0  0  0  0  0  0  0  0  0
   -2.4176    1.1270    0.0000 C   0  0  0  0  0  0  0  0  0  0  0  0
   -0.7676    1.1270    0.0000 C   0  0  0  0  0  0  0  0  0  0  0  0
    0.0574    1.1270    0.0000 C   0  0  0  0  0  0  0  0  0  0  0  0
    1.7798    1.0799    0.0000 N   0  0  0  0  0  0  0  0  0  0  0  0
    2.5645    0.8250    0.0000 C   0  0  0  0  0  0  0  0  0  0  0  0
  1  2  1  0  0  0  0
  2  3  2  0  0  0  0
  2  4  1  0  0  0  0
  4  5  4  0  0  0  0
  5  6  4  0  0  0  0
  6  7  4  0  0  0  0
  7  8  4  0  0  0  0
  8  9  4  0  0  0  0
  9 10  4  0  0  0  0
 10 11  1  0  0  0  0
 11 12  4  0  0  0  0
 12 13  4  0  0  0  0
 13 14  4  0  0  0  0
 14 15  1  0  0  0  0
 15 16  4  0  0  0  0
 16 17  4  0  0  0  0
 17 18  4  0  0  0  0
 18 19  1  0  0  0  0
 18 20  4  0  0  0  0
 20 21  4  0  0  0  0
 15 21  4  0  0  0  0
 14 22  4  0  0  0  0
 22 23  4  0  0  0  0
 11 23  4  0  0  0  0
 10 24  4  0  0  0  0
 24 25  4  0  0  0  0
  4 25  4  0  0  0  0
  8 25  4  0  0  0  0
M  STY  1   1 DAT
M  SAL   1  1   9
M  SDT   1 MRV_IMPLICIT_H                                        
M  SDD   1     0.5304   -0.4125    DR    ALL  0       0  
M  SED   1 IMPL_H1
M  END
> <IC50(uM)>
20.0

> <Outcome>
0.0

> <BindingDB ID>
50358212

> <BindingDB MonomerID>
50096203

> <BindingDB Ligand Name>
CHEMBL3593812

> <Curation/DataSource>
ChEMBL

> <Article DOI>
10.1016/j.bmc.2015.05.051

> <PMID>
26088338

> <Patent Number>
?

> <Authors>
Abdullah, I; Chee, CF; Lee, YK; Thunuguntla, SS; Satish Reddy, K; Nellore, K; Antony, T; Verma, J; Mun, KW; Othman, S; Subramanya, H; Rahman, NA

> <Link to Ligand in BindingDB>
http://www.bindingdb.org/bind/chemsearch/marvin/MolStructure.jsp?monomerid=50096203

> <Link to Ligand-Target Pair in BindingDB>
http://www.bindingdb.org/jsp/dbsearch/PrimarySearch_ki.jsp?energyterm=kJ/mole&tag=r21&monomerid=50096203&enzyme=Dihydroorotate+dehydrogenase&column=ki&startPg=0&Increment=50&submit=Search

> <PubChem CID>
122182187

> <PubChem SID>
103993770

$$$$

  Mrv2115 07222212352D          

 35 38  0  0  0  0            999 V2000
   -5.1659   -2.8414    0.0000 C   0  0  0  0  0  0  0  0  0  0  0  0
   -5.5784   -2.1269    0.0000 C   0  0  0  0  0  0  0  0  0  0  0  0
   -6.4034   -2.1269    0.0000 C   0  0  0  0  0  0  0  0  0  0  0  0
   -6.8159   -1.4124    0.0000 C   0  0  0  0  0  0  0  0  0  0  0  0
   -7.6409   -1.4124    0.0000 F   0  0  0  0  0  0  0  0  0  0  0  0
   -6.4034   -0.6979    0.0000 C   0  0  0  0  0  0  0  0  0  0  0  0
   -5.5784   -0.6979    0.0000 C   0  0  0  0  0  0  0  0  0  0  0  0
   -5.1659   -1.4124    0.0000 C   0  0  0  0  0  0  0  0  0  0  0  0
   -4.3409   -1.4124    0.0000 N   0  0  0  0  0  0  0  0  0  0  0  0
   -3.9284   -0.6979    0.0000 C   0  0  0  0  0  0  0  0  0  0  0  0
   -4.3409    0.0165    0.0000 O   0  0  0  0  0  0  0  0  0  0  0  0
   -3.1034   -0.6979    0.0000 C   0  0  0  0  0  0  0  0  0  0  0  0
   -2.6909    0.0165    0.0000 C   0  0  0  0  0  0  0  0  0  0  0  0
   -1.8659    0.0165    0.0000 C   0  0  0  0  0  0  0  0  0  0  0  0
   -1.4534    0.7310    0.0000 F   0  0  0  0  0  0  0  0  0  0  0  0
   -1.4534   -0.6979    0.0000 C   0  0  0  0  0  0  0  0  0  0  0  0
   -0.6284   -0.6979    0.0000 N   0  0  0  0  0  0  0  0  0  0  0  0
   -0.1435   -1.3654    0.0000 N   0  0  0  0  0  0  0  0  0  0  0  0
    0.6411   -1.1104    0.0000 C   0  0  0  0  0  0  0  0  0  0  0  0
    0.6411   -0.2854    0.0000 N   0  0  0  0  0  0  0  0  0  0  0  0
   -0.1435   -0.0305    0.0000 C   0  0  0  0  0  0  0  0  0  0  0  0
   -0.3984    0.7541    0.0000 O   0  0  0  0  0  0  0  0  0  0  0  0
    1.3556    0.1271    0.0000 C   0  0  0  0  0  0  0  0  0  0  0  0
    2.0701   -0.2854    0.0000 C   0  0  0  0  0  0  0  0  0  0  0  0
    2.0701   -1.1104    0.0000 C   0  0  0  0  0  0  0  0  0  0  0  0
    1.3556   -1.5229    0.0000 C   0  0  0  0  0  0  0  0  0  0  0  0
   -1.8659   -1.4124    0.0000 C   0  0  0  0  0  0  0  0  0  0  0  0
   -2.6909   -1.4124    0.0000 C   0  0  0  0  0  0  0  0  0  0  0  0
   -3.1034   -2.1269    0.0000 O   0  0  0  0  0  0  0  0  0  0  0  0
   -2.6909   -2.8414    0.0000 C   0  0  0  0  0  0  0  0  0  0  0  0
   -1.8659   -2.8414    0.0000 C   0  0  0  0  0  0  0  0  0  0  0  0
   -3.1034   -3.5558    0.0000 C   0  0  0  0  0  0  0  0  0  0  0  0
   -2.6909   -4.2703    0.0000 N   0  0  0  0  0  0  0  0  0  0  0  0
   -1.8659   -4.2703    0.0000 C   0  0  0  0  0  0  0  0  0  0  0  0
   -3.1034   -4.9848    0.0000 C   0  0  0  0  0  0  0  0  0  0  0  0
  1  2  1  0  0  0  0
  2  3  4  0  0  0  0
  3  4  4  0  0  0  0
  4  5  1  0  0  0  0
  4  6  4  0  0  0  0
  6  7  4  0  0  0  0
  7  8  4  0  0  0  0
  2  8  4  0  0  0  0
  8  9  1  0  0  0  0
  9 10  1  0  0  0  0
 10 11  2  0  0  0  0
 10 12  1  0  0  0  0
 12 13  4  0  0  0  0
 13 14  4  0  0  0  0
 14 15  1  0  0  0  0
 14 16  4  0  0  0  0
 16 17  1  0  0  0  0
 17 18  4  0  0  0  0
 18 19  4  0  0  0  0
 19 20  4  0  0  0  0
 20 21  4  0  0  0  0
 17 21  4  0  0  0  0
 21 22  2  0  0  0  0
 20 23  1  0  0  0  0
 23 24  1  0  0  0  0
 24 25  1  0  0  0  0
 25 26  1  0  0  0  0
 19 26  1  0  0  0  0
 16 27  4  0  0  0  0
 27 28  4  0  0  0  0
 12 28  4  0  0  0  0
 28 29  1  0  0  0  0
 29 30  1  0  0  0  0
 30 31  1  0  0  0  0
 30 32  1  0  0  0  0
 32 33  1  0  0  0  0
 33 34  1  0  0  0  0
 33 35  1  0  0  0  0
M  END
> <IC50(uM)>
0.03

> <Outcome>
1.0

> <BindingDB ID>
1020675

> <BindingDB MonomerID>
490601

> <BindingDB Ligand Name>
2-{[(2S)-1-(dimethylamino)propan-2-yl]oxy}-5-fluoro-N-(4-fluoro-2-methylphenyl)-4-(3-oxo-5,6,7,8-tetrahydro[1,2,4]triazolo[4,3-a]pyridin-2(3H)-yl)benzamide::US10968216, Example 269

> <Curation/DataSource>
US Patent

> <Article DOI>
?

> <PMID>
?

> <Patent Number>
US10968216

> <Authors>
Gradl, SN; Nguyen, D; Eis, K; Gunther, J; Stellfeld, T; Janzer, A; Christian, S; Mueller, T; Sheikh, SE; Zhou, HJ; Zhao, C; Sykes, DB; Ferrara, SJ; Liu, K; Herbert, SA; Merz, C; Niehues, M; Nising, CF; Schafer, M; Zimmermann, K; Knablein, J; Thede, K; Faupel, T

> <Link to Ligand in BindingDB>
http://www.bindingdb.org/bind/chemsearch/marvin/MolStructure.jsp?monomerid=490601

> <Link to Ligand-Target Pair in BindingDB>
http://www.bindingdb.org/jsp/dbsearch/PrimarySearch_ki.jsp?energyterm=kJ/mole&tag=r21&monomerid=490601&enzyme=Dihydroorotate+dehydrogenase&column=ki&startPg=0&Increment=50&submit=Search

> <PubChem CID>
134474538

> <PubChem SID>
447117327

$$$$

  Mrv2115 07222212352D          

 32 34  0  0  0  0            999 V2000
    2.1434   -3.7125    0.0000 C   0  0  0  0  0  0  0  0  0  0  0  0
    2.8579   -4.1250    0.0000 C   0  0  0  0  0  0  0  0  0  0  0  0
    3.5724   -3.7125    0.0000 C   0  0  0  0  0  0  0  0  0  0  0  0
    4.2868   -4.1250    0.0000 C   0  0  0  0  0  0  0  0  0  0  0  0
    4.2868   -4.9500    0.0000 C   0  0  0  0  0  0  0  0  0  0  0  0
    5.0013   -3.7125    0.0000 O   0  0  0  0  0  0  0  0  0  0  0  0
    5.0013   -2.8875    0.0000 C   0  0  0  0  0  0  0  0  0  0  0  0
    4.2868   -2.4750    0.0000 C   0  0  0  0  0  0  0  0  0  0  0  0
    4.2868   -1.6500    0.0000 C   0  0  0  0  0  0  0  0  0  0  0  0
    3.5724   -1.2375    0.0000 N   0  0  0  0  0  0  0  0  0  0  0  0
    2.8187   -1.5731    0.0000 N   0  0  0  0  0  0  0  0  0  0  0  0
    2.2666   -0.9600    0.0000 C   0  0  0  0  0  0  0  0  0  0  0  0
    1.4462   -1.0462    0.0000 C   0  0  0  0  0  0  0  0  0  0  0  0
    1.1106   -1.7999    0.0000 N   0  0  0  0  0  0  0  0  0  0  0  0
    2.6791   -0.2455    0.0000 N   0  0  0  0  0  0  0  0  0  0  0  0
    2.3436    0.5082    0.0000 C   0  0  0  0  0  0  0  0  0  0  0  0
    3.4861   -0.4170    0.0000 C   0  0  0  0  0  0  0  0  0  0  0  0
    4.0992    0.1350    0.0000 O   0  0  0  0  0  0  0  0  0  0  0  0
    5.0013   -1.2375    0.0000 C   0  0  0  0  0  0  0  0  0  0  0  0
    5.0013   -0.4125    0.0000 F   0  0  0  0  0  0  0  0  0  0  0  0
    5.7158   -1.6500    0.0000 C   0  0  0  0  0  0  0  0  0  0  0  0
    5.7158   -2.4750    0.0000 C   0  0  0  0  0  0  0  0  0  0  0  0
    6.4302   -2.8875    0.0000 C   0  0  0  0  0  0  0  0  0  0  0  0
    6.4302   -3.7125    0.0000 O   0  0  0  0  0  0  0  0  0  0  0  0
    7.1447   -2.4750    0.0000 N   0  0  0  0  0  0  0  0  0  0  0  0
    7.8592   -2.8875    0.0000 C   0  0  0  0  0  0  0  0  0  0  0  0
    8.5737   -2.4750    0.0000 C   0  0  0  0  0  0  0  0  0  0  0  0
    9.2881   -2.8875    0.0000 C   0  0  0  0  0  0  0  0  0  0  0  0
    9.2881   -3.7125    0.0000 C   0  0  0  0  0  0  0  0  0  0  0  0
    8.5737   -4.1250    0.0000 C   0  0  0  0  0  0  0  0  0  0  0  0
    7.8592   -3.7125    0.0000 C   0  0  0  0  0  0  0  0  0  0  0  0
    7.1447   -4.1250    0.0000 C   0  0  0  0  0  0  0  0  0  0  0  0
  1  2  1  0  0  0  0
  2  3  1  0  0  0  0
  3  4  1  0  0  0  0
  4  5  1  0  0  0  0
  4  6  1  0  0  0  0
  6  7  1  0  0  0  0
  7  8  4  0  0  0  0
  8  9  4  0  0  0  0
  9 10  1  0  0  0  0
 10 11  4  0  0  0  0
 11 12  4  0  0  0  0
 12 13  1  0  0  0  0
 13 14  1  0  0  0  0
 12 15  4  0  0  0  0
 15 16  1  0  0  0  0
 15 17  4  0  0  0  0
 10 17  4  0  0  0  0
 17 18  2  0  0  0  0
  9 19  4  0  0  0  0
 19 20  1  0  0  0  0
 19 21  4  0  0  0  0
 21 22  4  0  0  0  0
  7 22  4  0  0  0  0
 22 23  1  0  0  0  0
 23 24  2  0  0  0  0
 23 25  1  0  0  0  0
 25 26  1  0  0  0  0
 26 27  4  0  0  0  0
 27 28  4  0  0  0  0
 28 29  4  0  0  0  0
 29 30  4  0  0  0  0
 30 31  4  0  0  0  0
 26 31  4  0  0  0  0
 31 32  1  0  0  0  0
M  END
> <IC50(uM)>
1.0

> <Outcome>
1.0

> <BindingDB ID>
1098701; 972547

> <BindingDB MonomerID>
470421

> <BindingDB Ligand Name>
US10815215, Example 88::US11130745, Example 88; US10815215, Example 88

> <Curation/DataSource>
US Patent

> <Article DOI>
?

> <PMID>
?

> <Patent Number>
US11130745; US10815215

> <Authors>
Gradl, SN; Nguyen, D; Eis, K; Gunther, J; Stellfeld, T; Janzer, A; Christian, S; Muller, T; Sheikh, SE; Sykes, DB; Ferrara, SJ; Krober, M; Merz, C; Niehues, M; Schafer, M; Zimmermann, K; Nising, CF; Gradl, SN; Nguyen, D; Eis, K; Gunther, J; Stellfeld, T; Janzer, A; Christian, S; Muller, T; Sheikh, SE; Zhou, HJ; Zhao, C; Sykes, DB; Ferrara, SJ; Liu, K; Krober, M; Merz, C; Niehues, M; Schafer, M; Zimmermann, K; Nising, CF

> <Link to Ligand in BindingDB>
http://www.bindingdb.org/bind/chemsearch/marvin/MolStructure.jsp?monomerid=470421

> <Link to Ligand-Target Pair in BindingDB>
http://www.bindingdb.org/jsp/dbsearch/PrimarySearch_ki.jsp?energyterm=kJ/mole&tag=r21&monomerid=470421&enzyme=Dihydroorotate+dehydrogenase&column=ki&startPg=0&Increment=50&submit=Search

> <PubChem CID>
134470054

> <PubChem SID>
441609598

$$$$

  Mrv2115 07222212352D          

 21 23  0  0  0  0            999 V2000
    1.4289   -2.4750    0.0000 O   0  0  0  0  0  0  0  0  0  0  0  0
    1.4289   -1.6500    0.0000 C   0  0  0  0  0  0  0  0  0  0  0  0
    0.7145   -1.2375    0.0000 C   0  0  0  0  0  0  0  0  0  0  0  0
    0.0000   -1.6500    0.0000 O   0  0  0  0  0  0  0  0  0  0  0  0
    0.7145   -0.4125    0.0000 C   0  0  0  0  0  0  0  0  0  0  0  0
    0.0000    0.0000    0.0000 N   0  0  0  0  0  0  0  0  0  0  0  0
    0.0000    0.8250    0.0000 C   0  0  0  0  0  0  0  0  0  0  0  0
   -0.7145    1.2375    0.0000 C   0  0  0  0  0  0  0  0  0  0  0  0
   -0.7145    2.0625    0.0000 C   0  0  0  0  0  0  0  0  0  0  0  0
    0.0000    2.4750    0.0000 C   0  0  0  0  0  0  0  0  0  0  0  0
    0.0000    3.3000    0.0000 F   0  0  0  0  0  0  0  0  0  0  0  0
    0.7145    2.0625    0.0000 C   0  0  0  0  0  0  0  0  0  0  0  0
    0.7145    1.2375    0.0000 C   0  0  0  0  0  0  0  0  0  0  0  0
    1.4289    0.0000    0.0000 C   0  0  0  0  0  0  0  0  0  0  0  0
    1.4289    0.8250    0.0000 O   0  0  0  0  0  0  0  0  0  0  0  0
    2.1434   -0.4125    0.0000 C   0  0  0  0  0  0  0  0  0  0  0  0
    2.8579    0.0000    0.0000 C   0  0  0  0  0  0  0  0  0  0  0  0
    3.5724   -0.4125    0.0000 C   0  0  0  0  0  0  0  0  0  0  0  0
    3.5724   -1.2375    0.0000 C   0  0  0  0  0  0  0  0  0  0  0  0
    2.8579   -1.6500    0.0000 C   0  0  0  0  0  0  0  0  0  0  0  0
    2.1434   -1.2375    0.0000 C   0  0  0  0  0  0  0  0  0  0  0  0
  1  2  2  0  0  0  0
  2  3  1  0  0  0  0
  3  4  1  0  0  0  0
  3  5  2  0  0  0  0
  5  6  1  0  0  0  0
  6  7  1  0  0  0  0
  7  8  4  0  0  0  0
  8  9  4  0  0  0  0
  9 10  4  0  0  0  0
 10 11  1  0  0  0  0
 10 12  4  0  0  0  0
 12 13  4  0  0  0  0
  7 13  4  0  0  0  0
  5 14  1  0  0  0  0
 14 15  2  0  0  0  0
 14 16  1  0  0  0  0
 16 17  4  0  0  0  0
 17 18  4  0  0  0  0
 18 19  4  0  0  0  0
 19 20  4  0  0  0  0
 20 21  4  0  0  0  0
 16 21  4  0  0  0  0
  2 21  1  0  0  0  0
M  END
> <IC50(uM)>
0.33

> <Outcome>
1.0

> <BindingDB ID>
51282858

> <BindingDB MonomerID>
50523230

> <BindingDB Ligand Name>
CHEMBL4566973

> <Curation/DataSource>
ChEMBL

> <Article DOI>
10.1016/j.ejmech.2019.02.018

> <PMID>
30776695

> <Patent Number>
?

> <Authors>
Calil, FA; David, JS; Chiappetta, ERC; Fumagalli, F; Mello, RB; Leite, FHA; Castilho, MS; Emery, FS; Nonato, MC

> <Link to Ligand in BindingDB>
http://www.bindingdb.org/bind/chemsearch/marvin/MolStructure.jsp?monomerid=50523230

> <Link to Ligand-Target Pair in BindingDB>
http://www.bindingdb.org/jsp/dbsearch/PrimarySearch_ki.jsp?energyterm=kJ/mole&tag=r21&monomerid=50523230&enzyme=Dihydroorotate+dehydrogenase&column=ki&startPg=0&Increment=50&submit=Search

> <PubChem CID>
146672982

> <PubChem SID>
440731812

$$$$

  Mrv2115 07222212352D          

 30 33  0  0  0  0            999 V2000
    6.8513   -2.4750    0.0000 C   0  0  0  0  0  0  0  0  0  0  0  0
    6.1368   -2.8875    0.0000 C   0  0  0  0  0  0  0  0  0  0  0  0
    6.1368   -3.7125    0.0000 C   0  0  0  0  0  0  0  0  0  0  0  0
    5.4223   -4.1250    0.0000 C   0  0  0  0  0  0  0  0  0  0  0  0
    5.4223   -4.9500    0.0000 N   0  0  0  0  0  0  0  0  0  0  0  0
    6.1368   -5.3625    0.0000 C   0  0  0  0  0  0  0  0  0  0  0  0
    6.8513   -4.9500    0.0000 C   0  0  0  0  0  0  0  0  0  0  0  0
    7.5658   -5.3625    0.0000 C   0  0  0  0  0  0  0  0  0  0  0  0
    7.5658   -6.1875    0.0000 C   0  0  0  0  0  0  0  0  0  0  0  0
    8.2802   -6.6000    0.0000 C   0  0  0  0  0  0  0  0  0  0  0  0
    8.2802   -7.4250    0.0000 C   0  0  0  0  0  0  0  0  0  0  0  0
    8.9947   -7.8375    0.0000 C   0  0  0  0  0  0  0  0  0  0  0  0
    9.7092   -8.2500    0.0000 F   0  0  0  0  0  0  0  0  0  0  0  0
    9.4072   -7.1230    0.0000 F   0  0  0  0  0  0  0  0  0  0  0  0
    8.5822   -8.5520    0.0000 F   0  0  0  0  0  0  0  0  0  0  0  0
    7.5658   -7.8375    0.0000 C   0  0  0  0  0  0  0  0  0  0  0  0
    7.5658   -8.6625    0.0000 F   0  0  0  0  0  0  0  0  0  0  0  0
    6.8513   -7.4250    0.0000 C   0  0  0  0  0  0  0  0  0  0  0  0
    6.8513   -6.6000    0.0000 C   0  0  0  0  0  0  0  0  0  0  0  0
    6.1368   -6.1875    0.0000 C   0  0  0  0  0  0  0  0  0  0  0  0
    4.7079   -3.7125    0.0000 N   0  0  0  0  0  0  0  0  0  0  0  0
    3.9232   -3.9674    0.0000 N   0  0  0  0  0  0  0  0  0  0  0  0
    3.4383   -3.3000    0.0000 C   0  0  0  0  0  0  0  0  0  0  0  0
    2.6133   -3.3000    0.0000 C   0  0  0  0  0  0  0  0  0  0  0  0
    1.7883   -3.3000    0.0000 C   0  0  0  0  0  0  0  0  0  0  0  0
    2.6133   -2.4750    0.0000 F   0  0  0  0  0  0  0  0  0  0  0  0
    2.6133   -4.1250    0.0000 F   0  0  0  0  0  0  0  0  0  0  0  0
    3.9232   -2.6326    0.0000 N   0  0  0  0  0  0  0  0  0  0  0  0
    4.7079   -2.8875    0.0000 C   0  0  0  0  0  0  0  0  0  0  0  0
    5.4223   -2.4750    0.0000 N   0  0  0  0  0  0  0  0  0  0  0  0
  1  2  1  0  0  0  0
  2  3  4  0  0  0  0
  3  4  4  0  0  0  0
  4  5  1  0  0  0  0
  5  6  1  0  0  0  0
  6  7  1  0  0  0  0
  7  8  1  0  0  0  0
  8  9  1  0  0  0  0
  9 10  4  0  0  0  0
 10 11  4  0  0  0  0
 11 12  1  0  0  0  0
 12 13  1  0  0  0  0
 12 14  1  0  0  0  0
 12 15  1  0  0  0  0
 11 16  4  0  0  0  0
 16 17  1  0  0  0  0
 16 18  4  0  0  0  0
 18 19  4  0  0  0  0
  9 19  4  0  0  0  0
 19 20  1  0  0  0  0
  6 20  1  0  0  0  0
  4 21  4  0  0  0  0
 21 22  4  0  0  0  0
 22 23  4  0  0  0  0
 23 24  1  0  0  0  0
 24 25  1  0  0  0  0
 24 26  1  0  0  0  0
 24 27  1  0  0  0  0
 23 28  4  0  0  0  0
 28 29  4  0  0  0  0
 21 29  4  0  0  0  0
 29 30  4  0  0  0  0
  2 30  4  0  0  0  0
M  END
> <IC50(uM)>
100.0

> <Outcome>
0.0

> <BindingDB ID>
51373006

> <BindingDB MonomerID>
50555374

> <BindingDB Ligand Name>
CHEMBL4764319

> <Curation/DataSource>
ChEMBL

> <Article DOI>
?

> <PMID>
27127993

> <Patent Number>
?

> <Authors>
Kokkonda, S; Deng, X; White, KL; Coteron, JM; Marco, M; de Las Heras, L; White, J; El Mazouni, F; Tomchick, DR; Manjalanagara, K; Rudra, KR; Chen, G; Morizzi, J; Ryan, E; Kaminsky, W; Leroy, D; Mart??nez-Mart??nez, MS; Jimenez-Diaz, MB; Bazaga, SF; Angulo-Barturen, I; Waterson, D; Burrows, JN; Matthews, D; Charman, SA; Phillips, MA; Rathod, PK

> <Link to Ligand in BindingDB>
http://www.bindingdb.org/bind/chemsearch/marvin/MolStructure.jsp?monomerid=50555374

> <Link to Ligand-Target Pair in BindingDB>
http://www.bindingdb.org/jsp/dbsearch/PrimarySearch_ki.jsp?energyterm=kJ/mole&tag=r21&monomerid=50555374&enzyme=Dihydroorotate+dehydrogenase&column=ki&startPg=0&Increment=50&submit=Search

> <PubChem CID>
162661023

> <PubChem SID>
461694142

$$$$

  Mrv2115 07222212352D          

 26 28  0  0  0  0            999 V2000
    8.3345   -2.1384    0.0000 C   0  0  0  0  0  0  0  0  0  0  0  0
    7.7825   -1.5253    0.0000 C   0  0  0  0  0  0  0  0  0  0  0  0
    6.9755   -1.6968    0.0000 O   0  0  0  0  0  0  0  0  0  0  0  0
    6.4235   -1.0837    0.0000 C   0  0  0  0  0  0  0  0  0  0  0  0
    6.6784   -0.2991    0.0000 O   0  0  0  0  0  0  0  0  0  0  0  0
    5.6165   -1.2553    0.0000 C   0  0  0  0  0  0  0  0  0  0  0  0
    5.0645   -0.6422    0.0000 C   0  0  0  0  0  0  0  0  0  0  0  0
    4.2575   -0.8137    0.0000 N   0  0  0  0  0  0  0  0  0  0  0  0
    3.7054   -0.2006    0.0000 C   0  0  0  0  0  0  0  0  0  0  0  0
    3.9604    0.5840    0.0000 C   0  0  0  0  0  0  0  0  0  0  0  0
    3.4084    1.1971    0.0000 C   0  0  0  0  0  0  0  0  0  0  0  0
    2.6014    1.0256    0.0000 C   0  0  0  0  0  0  0  0  0  0  0  0
    2.3464    0.2410    0.0000 C   0  0  0  0  0  0  0  0  0  0  0  0
    2.8985   -0.3721    0.0000 C   0  0  0  0  0  0  0  0  0  0  0  0
    1.5214    0.2410    0.0000 C   0  0  0  0  0  0  0  0  0  0  0  0
    0.9694   -0.3721    0.0000 C   0  0  0  0  0  0  0  0  0  0  0  0
    0.1624   -0.2006    0.0000 C   0  0  0  0  0  0  0  0  0  0  0  0
   -0.0925    0.5840    0.0000 C   0  0  0  0  0  0  0  0  0  0  0  0
    0.4595    1.1971    0.0000 C   0  0  0  0  0  0  0  0  0  0  0  0
    1.2665    1.0256    0.0000 C   0  0  0  0  0  0  0  0  0  0  0  0
    1.9339    1.5105    0.0000 N   0  0  0  0  0  0  0  0  0  0  0  0
    1.9339    2.3355    0.0000 C   0  0  0  0  0  0  0  0  0  0  0  0
    2.6484    2.7480    0.0000 C   0  0  0  0  0  0  0  0  0  0  0  0
    5.3615   -2.0399    0.0000 N   0  3  0  0  0  0  0  0  0  0  0  0
    4.5546   -2.2114    0.0000 O   0  0  0  0  0  0  0  0  0  0  0  0
    5.9136   -2.6530    0.0000 O   0  5  0  0  0  0  0  0  0  0  0  0
  1  2  1  0  0  0  0
  2  3  1  0  0  0  0
  3  4  1  0  0  0  0
  4  5  2  0  0  0  0
  4  6  1  0  0  0  0
  6  7  2  0  0  0  0
  7  8  1  0  0  0  0
  8  9  1  0  0  0  0
  9 10  4  0  0  0  0
 10 11  4  0  0  0  0
 11 12  4  0  0  0  0
 12 13  4  0  0  0  0
 13 14  4  0  0  0  0
  9 14  4  0  0  0  0
 13 15  4  0  0  0  0
 15 16  4  0  0  0  0
 16 17  4  0  0  0  0
 17 18  4  0  0  0  0
 18 19  4  0  0  0  0
 19 20  4  0  0  0  0
 15 20  4  0  0  0  0
 20 21  4  0  0  0  0
 12 21  4  0  0  0  0
 21 22  1  0  0  0  0
 22 23  1  0  0  0  0
  6 24  1  0  0  0  0
 24 25  2  0  0  0  0
 24 26  1  0  0  0  0
M  CHG  2  24   1  26  -1
M  END
> <IC50(uM)>
100.0

> <Outcome>
0.0

> <BindingDB ID>
50889931

> <BindingDB MonomerID>
50269003

> <BindingDB Ligand Name>
CHEMBL4094476

> <Curation/DataSource>
ChEMBL

> <Article DOI>
10.1016/j.bmcl.2017.06.052

> <PMID>
28669445

> <Patent Number>
?

> <Authors>
McConkey, GA; Bedingfield, PTP; Burrell, DR; Chambers, NC; Cunningham, F; Prior, TJ; Fishwick, CWG; Boa, AN

> <Link to Ligand in BindingDB>
http://www.bindingdb.org/bind/chemsearch/marvin/MolStructure.jsp?monomerid=50269003

> <Link to Ligand-Target Pair in BindingDB>
http://www.bindingdb.org/jsp/dbsearch/PrimarySearch_ki.jsp?energyterm=kJ/mole&tag=r21&monomerid=50269003&enzyme=Dihydroorotate+dehydrogenase&column=ki&startPg=0&Increment=50&submit=Search

> <PubChem CID>
137653786

> <PubChem SID>
404915045

$$$$

  Mrv2115 07222212352D          

 23 24  0  0  0  0            999 V2000
    0.7145   -1.2375    0.0000 O   0  0  0  0  0  0  0  0  0  0  0  0
    1.4289   -1.6500    0.0000 C   0  0  0  0  0  0  0  0  0  0  0  0
    2.1434   -1.2375    0.0000 O   0  0  0  0  0  0  0  0  0  0  0  0
    1.4289   -2.4750    0.0000 C   0  0  0  0  0  0  0  0  0  0  0  0
    2.1434   -2.8875    0.0000 N   0  0  0  0  0  0  0  0  0  0  0  0
    2.1434   -3.7125    0.0000 C   0  0  0  0  0  0  0  0  0  0  0  0
    2.8579   -4.1250    0.0000 O   0  0  0  0  0  0  0  0  0  0  0  0
    1.4289   -4.1250    0.0000 N   0  0  0  0  0  0  0  0  0  0  0  0
    0.7145   -3.7125    0.0000 C   0  0  0  0  0  0  0  0  0  0  0  0
    0.0000   -4.1250    0.0000 O   0  0  0  0  0  0  0  0  0  0  0  0
    0.7145   -2.8875    0.0000 C   0  0  0  0  0  0  0  0  0  0  0  0
    0.0000   -2.4750    0.0000 C   0  0  0  0  0  0  0  0  0  0  0  0
   -0.7145   -2.8875    0.0000 C   0  0  0  0  0  0  0  0  0  0  0  0
   -1.4289   -2.4750    0.0000 C   0  0  0  0  0  0  0  0  0  0  0  0
   -2.1434   -2.8875    0.0000 C   0  0  0  0  0  0  0  0  0  0  0  0
   -2.8579   -2.4750    0.0000 C   0  0  0  0  0  0  0  0  0  0  0  0
   -2.8579   -1.6500    0.0000 C   0  0  0  0  0  0  0  0  0  0  0  0
   -2.1434   -1.2375    0.0000 C   0  0  0  0  0  0  0  0  0  0  0  0
   -1.4289   -1.6500    0.0000 C   0  0  0  0  0  0  0  0  0  0  0  0
   -0.7145   -1.2375    0.0000 C   0  0  0  0  0  0  0  0  0  0  0  0
    0.0000   -0.8250    0.0000 F   0  0  0  0  0  0  0  0  0  0  0  0
   -0.3020   -1.9520    0.0000 F   0  0  0  0  0  0  0  0  0  0  0  0
   -1.1270   -0.5230    0.0000 F   0  0  0  0  0  0  0  0  0  0  0  0
  1  2  2  0  0  0  0
  2  3  1  0  0  0  0
  2  4  1  0  0  0  0
  4  5  4  0  0  0  0
  5  6  4  0  0  0  0
  6  7  2  0  0  0  0
  6  8  4  0  0  0  0
  8  9  4  0  0  0  0
  9 10  2  0  0  0  0
  9 11  4  0  0  0  0
  4 11  4  0  0  0  0
 11 12  1  0  0  0  0
 12 13  1  0  0  0  0
 13 14  1  0  0  0  0
 14 15  4  0  0  0  0
 15 16  4  0  0  0  0
 16 17  4  0  0  0  0
 17 18  4  0  0  0  0
 18 19  4  0  0  0  0
 14 19  4  0  0  0  0
 19 20  1  0  0  0  0
 20 21  1  0  0  0  0
 20 22  1  0  0  0  0
 20 23  1  0  0  0  0
M  STY  2   1 DAT   2 DAT
M  SAL   1  1   5
M  SDT   1 MRV_IMPLICIT_H                                        
M  SDD   1     0.5304   -0.4125    DR    ALL  0       0  
M  SED   1 IMPL_H1
M  SAL   2  1   8
M  SDT   2 MRV_IMPLICIT_H                                        
M  SDD   2     0.6482   -0.4125    DR    ALL  0       0  
M  SED   2 IMPL_H1
M  END
> <IC50(uM)>
5.0

> <Outcome>
0.0

> <BindingDB ID>
50555276

> <BindingDB MonomerID>
50211698

> <BindingDB Ligand Name>
CHEMBL3925433

> <Curation/DataSource>
ChEMBL

> <Article DOI>
10.1016/j.bmc.2017.01.009

> <PMID>
28118956

> <Patent Number>
?

> <Authors>
Inaoka, DK; Iida, M; Hashimoto, S; Tabuchi, T; Kuranaga, T; Balogun, EO; Honma, T; Tanaka, A; Harada, S; Nara, T; Kita, K; Inoue, M

> <Link to Ligand in BindingDB>
http://www.bindingdb.org/bind/chemsearch/marvin/MolStructure.jsp?monomerid=50211698

> <Link to Ligand-Target Pair in BindingDB>
http://www.bindingdb.org/jsp/dbsearch/PrimarySearch_ki.jsp?energyterm=kJ/mole&tag=r21&monomerid=50211698&enzyme=Dihydroorotate+dehydrogenase&column=ki&startPg=0&Increment=50&submit=Search

> <PubChem CID>
134141087

> <PubChem SID>
375983041

$$$$

  Mrv2115 07222212352D          

 25 28  0  0  0  0            999 V2000
    3.9934    2.4750    0.0000 O   0  0  0  0  0  0  0  0  0  0  0  0
    3.2789    2.0625    0.0000 C   0  0  0  0  0  0  0  0  0  0  0  0
    2.5645    2.4750    0.0000 O   0  0  0  0  0  0  0  0  0  0  0  0
    3.2789    1.2375    0.0000 C   0  0  0  0  0  0  0  0  0  0  0  0
    3.9934    0.8250    0.0000 C   0  0  0  0  0  0  0  0  0  0  0  0
    3.9934    0.0000    0.0000 C   0  0  0  0  0  0  0  0  0  0  0  0
    3.2789   -0.4125    0.0000 C   0  0  0  0  0  0  0  0  0  0  0  0
    2.5645    0.0000    0.0000 C   0  0  0  0  0  0  0  0  0  0  0  0
    1.7798   -0.2549    0.0000 N   0  0  0  0  0  0  0  0  0  0  0  0
    1.2949    0.4125    0.0000 C   0  0  0  0  0  0  0  0  0  0  0  0
    0.4699    0.4125    0.0000 C   0  0  0  0  0  0  0  0  0  0  0  0
    0.0574   -0.3020    0.0000 C   0  0  0  0  0  0  0  0  0  0  0  0
   -0.7676   -0.3020    0.0000 C   0  0  0  0  0  0  0  0  0  0  0  0
   -1.1801    0.4125    0.0000 C   0  0  0  0  0  0  0  0  0  0  0  0
   -2.0051    0.4125    0.0000 C   0  0  0  0  0  0  0  0  0  0  0  0
   -2.4176   -0.3020    0.0000 C   0  0  0  0  0  0  0  0  0  0  0  0
   -3.2426   -0.3020    0.0000 C   0  0  0  0  0  0  0  0  0  0  0  0
   -3.6551    0.4125    0.0000 C   0  0  0  0  0  0  0  0  0  0  0  0
   -3.2426    1.1270    0.0000 C   0  0  0  0  0  0  0  0  0  0  0  0
   -2.4176    1.1270    0.0000 C   0  0  0  0  0  0  0  0  0  0  0  0
   -0.7676    1.1270    0.0000 C   0  0  0  0  0  0  0  0  0  0  0  0
    0.0574    1.1270    0.0000 C   0  0  0  0  0  0  0  0  0  0  0  0
    0.4699    1.8414    0.0000 F   0  0  0  0  0  0  0  0  0  0  0  0
    1.7798    1.0799    0.0000 N   0  0  0  0  0  0  0  0  0  0  0  0
    2.5645    0.8250    0.0000 C   0  0  0  0  0  0  0  0  0  0  0  0
  1  2  2  0  0  0  0
  2  3  1  0  0  0  0
  2  4  1  0  0  0  0
  4  5  4  0  0  0  0
  5  6  4  0  0  0  0
  6  7  4  0  0  0  0
  7  8  4  0  0  0  0
  8  9  4  0  0  0  0
  9 10  4  0  0  0  0
 10 11  1  0  0  0  0
 11 12  4  0  0  0  0
 12 13  4  0  0  0  0
 13 14  4  0  0  0  0
 14 15  1  0  0  0  0
 15 16  4  0  0  0  0
 16 17  4  0  0  0  0
 17 18  4  0  0  0  0
 18 19  4  0  0  0  0
 19 20  4  0  0  0  0
 15 20  4  0  0  0  0
 14 21  4  0  0  0  0
 21 22  4  0  0  0  0
 11 22  4  0  0  0  0
 22 23  1  0  0  0  0
 10 24  4  0  0  0  0
 24 25  4  0  0  0  0
  4 25  4  0  0  0  0
  8 25  4  0  0  0  0
M  STY  1   1 DAT
M  SAL   1  1  24
M  SDT   1 MRV_IMPLICIT_H                                        
M  SDD   1     0.5304   -0.4125    DR    ALL  0       0  
M  SED   1 IMPL_H1
M  END
> <IC50(uM)>
0.922

> <Outcome>
1.0

> <BindingDB ID>
297759

> <BindingDB MonomerID>
155415

> <BindingDB Ligand Name>
US9006454, I27

> <Curation/DataSource>
US Patent

> <Article DOI>
?

> <PMID>
?

> <Patent Number>
US9006454

> <Authors>
Thunuguntla, SS; Subramanya, H; Kunnam, SR; Sanivaru Vijay, SR; Bingi, C; Kusanur, R; Schwarz, M; Arlt, M

> <Link to Ligand in BindingDB>
http://www.bindingdb.org/bind/chemsearch/marvin/MolStructure.jsp?monomerid=155415

> <Link to Ligand-Target Pair in BindingDB>
http://www.bindingdb.org/jsp/dbsearch/PrimarySearch_ki.jsp?energyterm=kJ/mole&tag=r21&monomerid=155415&enzyme=Dihydroorotate+dehydrogenase&column=ki&startPg=0&Increment=50&submit=Search

> <PubChem CID>
46946187

> <PubChem SID>
253658352

$$$$

  Mrv2115 07222212352D          

 15 16  0  0  0  0            999 V2000
    2.0367   -0.4741    0.0000 C   0  0  0  0  0  0  0  0  0  0  0  0
    2.0367   -1.2991    0.0000 C   0  0  0  0  0  0  0  0  0  0  0  0
    2.7041   -1.7840    0.0000 N   0  0  0  0  0  0  0  0  0  0  0  0
    2.4492   -2.5687    0.0000 N   0  0  0  0  0  0  0  0  0  0  0  0
    1.6242   -2.5687    0.0000 C   0  0  0  0  0  0  0  0  0  0  0  0
    1.1393   -3.2361    0.0000 N   0  0  0  0  0  0  0  0  0  0  0  0
    0.3188   -3.1499    0.0000 C   0  0  0  0  0  0  0  0  0  0  0  0
   -0.1661   -3.8173    0.0000 C   0  0  0  0  0  0  0  0  0  0  0  0
   -0.9866   -3.7311    0.0000 C   0  0  0  0  0  0  0  0  0  0  0  0
   -1.3222   -2.9774    0.0000 C   0  0  0  0  0  0  0  0  0  0  0  0
   -0.8372   -2.3099    0.0000 C   0  0  0  0  0  0  0  0  0  0  0  0
   -0.0168   -2.3962    0.0000 C   0  0  0  0  0  0  0  0  0  0  0  0
    1.3693   -1.7840    0.0000 C   0  0  0  0  0  0  0  0  0  0  0  0
    0.5846   -1.5291    0.0000 C   0  0  0  0  0  0  0  0  0  0  0  0
   -0.2000   -1.2742    0.0000 N   0  0  0  0  0  0  0  0  0  0  0  0
  1  2  1  0  0  0  0
  2  3  4  0  0  0  0
  3  4  4  0  0  0  0
  4  5  4  0  0  0  0
  5  6  1  0  0  0  0
  6  7  1  0  0  0  0
  7  8  4  0  0  0  0
  8  9  4  0  0  0  0
  9 10  4  0  0  0  0
 10 11  4  0  0  0  0
 11 12  4  0  0  0  0
  7 12  4  0  0  0  0
  5 13  4  0  0  0  0
  2 13  4  0  0  0  0
 13 14  1  0  0  0  0
 14 15  3  0  0  0  0
M  STY  1   1 DAT
M  SAL   1  1   4
M  SDT   1 MRV_IMPLICIT_H                                        
M  SDD   1     0.5304   -0.4125    DR    ALL  0       0  
M  SED   1 IMPL_H1
M  END
> <IC50(uM)>
50.0

> <Outcome>
0.0

> <BindingDB ID>
50786790

> <BindingDB MonomerID>
50066597

> <BindingDB Ligand Name>
5-Methyl-3-phenylamino-1H-pyrazole-4-carbonitrile::CHEMBL119697

> <Curation/DataSource>
ChEMBL

> <Article DOI>
10.1021/jm981028c

> <PMID>
9719606

> <Patent Number>
?

> <Authors>
Papageorgiou, C; Albert, R; Floersheim, P; Lemaire, M; Bitch, F; Weber, HP; Andersen, E; Hungerford, V; Schreier, MH

> <Link to Ligand in BindingDB>
http://www.bindingdb.org/bind/chemsearch/marvin/MolStructure.jsp?monomerid=50066597

> <Link to Ligand-Target Pair in BindingDB>
http://www.bindingdb.org/jsp/dbsearch/PrimarySearch_ki.jsp?energyterm=kJ/mole&tag=r21&monomerid=50066597&enzyme=Dihydroorotate+dehydrogenase&column=ki&startPg=0&Increment=50&submit=Search

> <PubChem CID>
10488180

> <PubChem SID>
103961217

$$$$

  Mrv2115 07222212352D          

 20 21  0  0  0  0            999 V2000
    2.1434   -1.2375    0.0000 C   0  0  0  0  0  0  0  0  0  0  0  0
    1.4289   -1.6500    0.0000 C   0  0  0  0  0  0  0  0  0  0  0  0
    1.4289   -2.4750    0.0000 C   0  0  0  0  0  0  0  0  0  0  0  0
    2.0964   -2.9599    0.0000 O   0  0  0  0  0  0  0  0  0  0  0  0
    1.8414   -3.7445    0.0000 N   0  0  0  0  0  0  0  0  0  0  0  0
    1.0164   -3.7445    0.0000 C   0  0  0  0  0  0  0  0  0  0  0  0
    0.7615   -2.9599    0.0000 C   0  0  0  0  0  0  0  0  0  0  0  0
   -0.0231   -2.7050    0.0000 C   0  0  0  0  0  0  0  0  0  0  0  0
   -0.1946   -1.8980    0.0000 S   0  0  0  0  0  0  0  0  0  0  0  0
   -0.6362   -3.2570    0.0000 N   0  0  0  0  0  0  0  0  0  0  0  0
   -1.4208   -3.0021    0.0000 C   0  0  0  0  0  0  0  0  0  0  0  0
   -2.0339   -3.5541    0.0000 C   0  0  0  0  0  0  0  0  0  0  0  0
   -2.8186   -3.2992    0.0000 C   0  0  0  0  0  0  0  0  0  0  0  0
   -2.9901   -2.4922    0.0000 C   0  0  0  0  0  0  0  0  0  0  0  0
   -3.7747   -2.2373    0.0000 C   0  0  0  0  0  0  0  0  0  0  0  0
   -4.5593   -1.9823    0.0000 F   0  0  0  0  0  0  0  0  0  0  0  0
   -3.5198   -1.4526    0.0000 F   0  0  0  0  0  0  0  0  0  0  0  0
   -4.0296   -3.0219    0.0000 F   0  0  0  0  0  0  0  0  0  0  0  0
   -2.3770   -1.9402    0.0000 C   0  0  0  0  0  0  0  0  0  0  0  0
   -1.5924   -2.1951    0.0000 C   0  0  0  0  0  0  0  0  0  0  0  0
  1  2  1  0  0  0  0
  2  3  1  0  0  0  0
  3  4  4  0  0  0  0
  4  5  4  0  0  0  0
  5  6  4  0  0  0  0
  6  7  4  0  0  0  0
  3  7  4  0  0  0  0
  7  8  1  0  0  0  0
  8  9  2  0  0  0  0
  8 10  1  0  0  0  0
 10 11  1  0  0  0  0
 11 12  4  0  0  0  0
 12 13  4  0  0  0  0
 13 14  4  0  0  0  0
 14 15  1  0  0  0  0
 15 16  1  0  0  0  0
 15 17  1  0  0  0  0
 15 18  1  0  0  0  0
 14 19  4  0  0  0  0
 19 20  4  0  0  0  0
 11 20  4  0  0  0  0
M  END
> <IC50(uM)>
3.0

> <Outcome>
0.0

> <BindingDB ID>
50123310

> <BindingDB MonomerID>
50071403

> <BindingDB Ligand Name>
5-Ethyl-isoxazole-4-carbothioic acid (4-trifluoromethyl-phenyl)-amide::CHEMBL304401

> <Curation/DataSource>
ChEMBL

> <Article DOI>
10.1016/s0960-894x(98)00365-5

> <PMID>
9873513

> <Patent Number>
?

> <Authors>
Albert, R; Knecht, H; Andersen, E; Hungerford, V; Schreier, MH; Papageorgiou, C

> <Link to Ligand in BindingDB>
http://www.bindingdb.org/bind/chemsearch/marvin/MolStructure.jsp?monomerid=50071403

> <Link to Ligand-Target Pair in BindingDB>
http://www.bindingdb.org/jsp/dbsearch/PrimarySearch_ki.jsp?energyterm=kJ/mole&tag=r21&monomerid=50071403&enzyme=Dihydroorotate+dehydrogenase&column=ki&startPg=0&Increment=50&submit=Search

> <PubChem CID>
44310374

> <PubChem SID>
103965157

$$$$

  Mrv2115 07222212352D          

 26 29  0  0  0  0            999 V2000
    2.1434   -2.8875    0.0000 O   0  0  0  0  0  0  0  0  0  0  0  0
    1.4289   -2.4750    0.0000 C   0  0  0  0  0  0  0  0  0  0  0  0
    0.7145   -2.8875    0.0000 O   0  0  0  0  0  0  0  0  0  0  0  0
    1.4289   -1.6500    0.0000 C   0  0  0  0  0  0  0  0  0  0  0  0
    0.7145   -1.2375    0.0000 C   0  0  0  0  0  0  0  0  0  0  0  0
    0.7145   -0.4125    0.0000 C   0  0  0  0  0  0  0  0  0  0  0  0
    0.0000    0.0000    0.0000 C   0  0  0  0  0  0  0  0  0  0  0  0
   -0.7145   -0.4125    0.0000 C   0  0  0  0  0  0  0  0  0  0  0  0
   -1.4289    0.0000    0.0000 C   0  0  0  0  0  0  0  0  0  0  0  0
   -1.4289    0.8250    0.0000 C   0  0  0  0  0  0  0  0  0  0  0  0
   -2.1434    1.2375    0.0000 C   0  0  0  0  0  0  0  0  0  0  0  0
   -2.8579    0.8250    0.0000 C   0  0  0  0  0  0  0  0  0  0  0  0
   -3.5724    1.2375    0.0000 C   0  0  0  0  0  0  0  0  0  0  0  0
   -3.5724    2.0625    0.0000 C   0  0  0  0  0  0  0  0  0  0  0  0
   -4.2868    2.4750    0.0000 F   0  0  0  0  0  0  0  0  0  0  0  0
   -2.8579    2.4750    0.0000 N   0  0  0  0  0  0  0  0  0  0  0  0
   -2.1434    2.0625    0.0000 C   0  0  0  0  0  0  0  0  0  0  0  0
   -0.7145    1.2375    0.0000 C   0  0  0  0  0  0  0  0  0  0  0  0
    0.0000    0.8250    0.0000 C   0  0  0  0  0  0  0  0  0  0  0  0
    1.4289    0.0000    0.0000 N   0  0  0  0  0  0  0  0  0  0  0  0
    2.1434   -0.4125    0.0000 C   0  0  0  0  0  0  0  0  0  0  0  0
    2.8579    0.0000    0.0000 C   0  0  0  0  0  0  0  0  0  0  0  0
    3.5724   -0.4125    0.0000 C   0  0  0  0  0  0  0  0  0  0  0  0
    3.5724   -1.2375    0.0000 C   0  0  0  0  0  0  0  0  0  0  0  0
    2.8579   -1.6500    0.0000 C   0  0  0  0  0  0  0  0  0  0  0  0
    2.1434   -1.2375    0.0000 C   0  0  0  0  0  0  0  0  0  0  0  0
  1  2  2  0  0  0  0
  2  3  1  0  0  0  0
  2  4  1  0  0  0  0
  4  5  4  0  0  0  0
  5  6  4  0  0  0  0
  6  7  1  0  0  0  0
  7  8  4  0  0  0  0
  8  9  4  0  0  0  0
  9 10  4  0  0  0  0
 10 11  1  0  0  0  0
 11 12  4  0  0  0  0
 12 13  4  0  0  0  0
 13 14  4  0  0  0  0
 14 15  1  0  0  0  0
 14 16  4  0  0  0  0
 16 17  4  0  0  0  0
 11 17  4  0  0  0  0
 10 18  4  0  0  0  0
 18 19  4  0  0  0  0
  7 19  4  0  0  0  0
  6 20  4  0  0  0  0
 20 21  4  0  0  0  0
 21 22  4  0  0  0  0
 22 23  4  0  0  0  0
 23 24  4  0  0  0  0
 24 25  4  0  0  0  0
 25 26  4  0  0  0  0
  4 26  4  0  0  0  0
 21 26  4  0  0  0  0
M  END
> <IC50(uM)>
12.5

> <Outcome>
0.0

> <BindingDB ID>
51126185

> <BindingDB MonomerID>
50461872

> <BindingDB Ligand Name>
CHEMBL4224698

> <Curation/DataSource>
ChEMBL

> <Article DOI>
10.1021/acs.jmedchem.7b01862

> <PMID>
29727569

> <Patent Number>
?

> <Authors>
Madak, JT; Cuthbertson, CR; Miyata, Y; Tamura, S; Petrunak, EM; Stuckey, JA; Han, Y; He, M; Sun, D; Showalter, HD; Neamati, N

> <Link to Ligand in BindingDB>
http://www.bindingdb.org/bind/chemsearch/marvin/MolStructure.jsp?monomerid=50461872

> <Link to Ligand-Target Pair in BindingDB>
http://www.bindingdb.org/jsp/dbsearch/PrimarySearch_ki.jsp?energyterm=kJ/mole&tag=r21&monomerid=50461872&enzyme=Dihydroorotate+dehydrogenase&column=ki&startPg=0&Increment=50&submit=Search

> <PubChem CID>
145968498

> <PubChem SID>
433929137

$$$$

  Mrv2115 07222212352D          

 32 34  0  0  0  0            999 V2000
    2.8579   -1.6500    0.0000 C   0  0  0  0  0  0  0  0  0  0  0  0
    3.5724   -2.0625    0.0000 C   0  0  0  0  0  0  0  0  0  0  0  0
    4.2868   -1.6500    0.0000 C   0  0  0  0  0  0  0  0  0  0  0  0
    5.0013   -2.0625    0.0000 C   0  0  0  0  0  0  0  0  0  0  0  0
    5.0013   -2.8875    0.0000 C   0  0  0  0  0  0  0  0  0  0  0  0
    5.7158   -1.6500    0.0000 O   0  0  0  0  0  0  0  0  0  0  0  0
    5.7158   -0.8250    0.0000 C   0  0  0  0  0  0  0  0  0  0  0  0
    5.0013   -0.4125    0.0000 C   0  0  0  0  0  0  0  0  0  0  0  0
    5.0013    0.4125    0.0000 C   0  0  0  0  0  0  0  0  0  0  0  0
    4.2868    0.8250    0.0000 N   0  0  0  0  0  0  0  0  0  0  0  0
    3.5332    0.4894    0.0000 N   0  0  0  0  0  0  0  0  0  0  0  0
    2.9811    1.1025    0.0000 C   0  0  0  0  0  0  0  0  0  0  0  0
    2.1606    1.0163    0.0000 C   0  0  0  0  0  0  0  0  0  0  0  0
    1.6757    1.6837    0.0000 C   0  0  0  0  0  0  0  0  0  0  0  0
    3.3936    1.8170    0.0000 N   0  0  0  0  0  0  0  0  0  0  0  0
    3.0581    2.5707    0.0000 C   0  0  0  0  0  0  0  0  0  0  0  0
    4.2006    1.6455    0.0000 C   0  0  0  0  0  0  0  0  0  0  0  0
    4.8137    2.1975    0.0000 O   0  0  0  0  0  0  0  0  0  0  0  0
    5.7158    0.8250    0.0000 C   0  0  0  0  0  0  0  0  0  0  0  0
    5.7158    1.6500    0.0000 F   0  0  0  0  0  0  0  0  0  0  0  0
    6.4302    0.4125    0.0000 C   0  0  0  0  0  0  0  0  0  0  0  0
    6.4302   -0.4125    0.0000 C   0  0  0  0  0  0  0  0  0  0  0  0
    7.1447   -0.8250    0.0000 C   0  0  0  0  0  0  0  0  0  0  0  0
    7.8592   -0.4125    0.0000 O   0  0  0  0  0  0  0  0  0  0  0  0
    7.1447   -1.6500    0.0000 N   0  0  0  0  0  0  0  0  0  0  0  0
    7.8592   -2.0625    0.0000 C   0  0  0  0  0  0  0  0  0  0  0  0
    7.8592   -2.8875    0.0000 C   0  0  0  0  0  0  0  0  0  0  0  0
    8.5737   -3.3000    0.0000 C   0  0  0  0  0  0  0  0  0  0  0  0
    8.5737   -4.1250    0.0000 C   0  0  0  0  0  0  0  0  0  0  0  0
    7.8592   -4.5375    0.0000 C   0  0  0  0  0  0  0  0  0  0  0  0
    7.1447   -4.1250    0.0000 C   0  0  0  0  0  0  0  0  0  0  0  0
    7.1447   -3.3000    0.0000 C   0  0  0  0  0  0  0  0  0  0  0  0
  1  2  1  0  0  0  0
  2  3  1  0  0  0  0
  3  4  1  0  0  0  0
  4  5  1  0  0  0  0
  4  6  1  0  0  0  0
  6  7  1  0  0  0  0
  7  8  4  0  0  0  0
  8  9  4  0  0  0  0
  9 10  1  0  0  0  0
 10 11  4  0  0  0  0
 11 12  4  0  0  0  0
 12 13  1  0  0  0  0
 13 14  1  0  0  0  0
 12 15  4  0  0  0  0
 15 16  1  0  0  0  0
 15 17  4  0  0  0  0
 10 17  4  0  0  0  0
 17 18  2  0  0  0  0
  9 19  4  0  0  0  0
 19 20  1  0  0  0  0
 19 21  4  0  0  0  0
 21 22  4  0  0  0  0
  7 22  4  0  0  0  0
 22 23  1  0  0  0  0
 23 24  2  0  0  0  0
 23 25  1  0  0  0  0
 25 26  1  0  0  0  0
 26 27  1  0  0  0  0
 27 28  1  0  0  0  0
 28 29  1  0  0  0  0
 29 30  1  0  0  0  0
 30 31  1  0  0  0  0
 31 32  1  0  0  0  0
 27 32  1  0  0  0  0
M  END
> <IC50(uM)>
0.252

> <Outcome>
1.0

> <BindingDB ID>
972486; 1098640

> <BindingDB MonomerID>
470370

> <BindingDB Ligand Name>
N-(cyclohexylmethyl)-4-(3-ethyl-4-methyl-5-oxo-4,5-dihydro-1H-1,2,4-triazol-1-yl)-5-fluoro-2-[(2S)-pentan-2-yloxy]benzamide::US10815215, Example 30; N-(cyclohexylmethyl)-4-(3-ethyl-4-methyl-5-oxo-4,5-dihydro-1H-1,2,4-triazol-1-yl)-5-fluoro-2-[(2S)-pentan-2-yloxy]benzamide::US10815215, Example 30::US11130745, Example 30

> <Curation/DataSource>
US Patent

> <Article DOI>
?

> <PMID>
?

> <Patent Number>
US10815215; US11130745

> <Authors>
Gradl, SN; Nguyen, D; Eis, K; Gunther, J; Stellfeld, T; Janzer, A; Christian, S; Muller, T; Sheikh, SE; Zhou, HJ; Zhao, C; Sykes, DB; Ferrara, SJ; Liu, K; Krober, M; Merz, C; Niehues, M; Schafer, M; Zimmermann, K; Nising, CF; Gradl, SN; Nguyen, D; Eis, K; Gunther, J; Stellfeld, T; Janzer, A; Christian, S; Muller, T; Sheikh, SE; Sykes, DB; Ferrara, SJ; Krober, M; Merz, C; Niehues, M; Schafer, M; Zimmermann, K; Nising, CF

> <Link to Ligand in BindingDB>
http://www.bindingdb.org/bind/chemsearch/marvin/MolStructure.jsp?monomerid=470370

> <Link to Ligand-Target Pair in BindingDB>
http://www.bindingdb.org/jsp/dbsearch/PrimarySearch_ki.jsp?energyterm=kJ/mole&tag=r21&monomerid=470370&enzyme=Dihydroorotate+dehydrogenase&column=ki&startPg=0&Increment=50&submit=Search

> <PubChem CID>
134469892

> <PubChem SID>
441609547

$$$$

  Mrv2115 07222212352D          

 27 30  0  0  0  0            999 V2000
    8.9947    7.0125    0.0000 C   0  0  0  0  0  0  0  0  0  0  0  0
    8.2802    7.4250    0.0000 O   0  0  0  0  0  0  0  0  0  0  0  0
    7.5658    7.0125    0.0000 C   0  0  0  0  0  0  0  0  0  0  0  0
    6.8513    7.4250    0.0000 C   0  0  0  0  0  0  0  0  0  0  0  0
    6.1368    7.0125    0.0000 C   0  0  0  0  0  0  0  0  0  0  0  0
    6.1368    6.1875    0.0000 C   0  0  0  0  0  0  0  0  0  0  0  0
    6.8513    5.7750    0.0000 C   0  0  0  0  0  0  0  0  0  0  0  0
    7.5658    6.1875    0.0000 C   0  0  0  0  0  0  0  0  0  0  0  0
    6.8513    4.9500    0.0000 C   0  0  0  0  0  0  0  0  0  0  0  0
    6.1368    4.5375    0.0000 C   0  0  0  0  0  0  0  0  0  0  0  0
    5.4223    4.9500    0.0000 C   0  0  0  0  0  0  0  0  0  0  0  0
    4.7079    4.5375    0.0000 N   0  0  0  0  0  0  0  0  0  0  0  0
    4.7079    3.7125    0.0000 C   0  0  0  0  0  0  0  0  0  0  0  0
    5.4223    3.3000    0.0000 C   0  0  0  0  0  0  0  0  0  0  0  0
    5.4223    2.4750    0.0000 C   0  0  0  0  0  0  0  0  0  0  0  0
    6.1368    2.0625    0.0000 C   0  0  0  0  0  0  0  0  0  0  0  0
    4.7079    2.0625    0.0000 N   0  0  0  0  0  0  0  0  0  0  0  0
    3.9934    2.4750    0.0000 C   0  0  0  0  0  0  0  0  0  0  0  0
    3.2088    2.2201    0.0000 N   0  0  0  0  0  0  0  0  0  0  0  0
    2.7239    2.8875    0.0000 C   0  0  0  0  0  0  0  0  0  0  0  0
    1.8989    2.8875    0.0000 C   0  0  0  0  0  0  0  0  0  0  0  0
    1.0739    2.8875    0.0000 C   0  0  0  0  0  0  0  0  0  0  0  0
    1.8989    3.7125    0.0000 F   0  0  0  0  0  0  0  0  0  0  0  0
    1.8989    2.0625    0.0000 F   0  0  0  0  0  0  0  0  0  0  0  0
    3.2088    3.5549    0.0000 N   0  0  0  0  0  0  0  0  0  0  0  0
    3.9934    3.3000    0.0000 N   0  0  0  0  0  0  0  0  0  0  0  0
    5.4223    5.7750    0.0000 C   0  0  0  0  0  0  0  0  0  0  0  0
  1  2  1  0  0  0  0
  2  3  1  0  0  0  0
  3  4  4  0  0  0  0
  4  5  4  0  0  0  0
  5  6  4  0  0  0  0
  6  7  4  0  0  0  0
  7  8  4  0  0  0  0
  3  8  4  0  0  0  0
  7  9  1  0  0  0  0
  9 10  1  0  0  0  0
 10 11  1  0  0  0  0
 11 12  1  0  0  0  0
 12 13  1  0  0  0  0
 13 14  4  0  0  0  0
 14 15  4  0  0  0  0
 15 16  1  0  0  0  0
 15 17  4  0  0  0  0
 17 18  4  0  0  0  0
 18 19  4  0  0  0  0
 19 20  4  0  0  0  0
 20 21  1  0  0  0  0
 21 22  1  0  0  0  0
 21 23  1  0  0  0  0
 21 24  1  0  0  0  0
 20 25  4  0  0  0  0
 25 26  4  0  0  0  0
 13 26  4  0  0  0  0
 18 26  4  0  0  0  0
 11 27  1  0  0  0  0
  6 27  1  0  0  0  0
M  END
> <IC50(uM)>
100.0

> <Outcome>
0.0

> <BindingDB ID>
51373003

> <BindingDB MonomerID>
50555371

> <BindingDB Ligand Name>
CHEMBL4741128

> <Curation/DataSource>
ChEMBL

> <Article DOI>
?

> <PMID>
27127993

> <Patent Number>
?

> <Authors>
Kokkonda, S; Deng, X; White, KL; Coteron, JM; Marco, M; de Las Heras, L; White, J; El Mazouni, F; Tomchick, DR; Manjalanagara, K; Rudra, KR; Chen, G; Morizzi, J; Ryan, E; Kaminsky, W; Leroy, D; Mart??nez-Mart??nez, MS; Jimenez-Diaz, MB; Bazaga, SF; Angulo-Barturen, I; Waterson, D; Burrows, JN; Matthews, D; Charman, SA; Phillips, MA; Rathod, PK

> <Link to Ligand in BindingDB>
http://www.bindingdb.org/bind/chemsearch/marvin/MolStructure.jsp?monomerid=50555371

> <Link to Ligand-Target Pair in BindingDB>
http://www.bindingdb.org/jsp/dbsearch/PrimarySearch_ki.jsp?energyterm=kJ/mole&tag=r21&monomerid=50555371&enzyme=Dihydroorotate+dehydrogenase&column=ki&startPg=0&Increment=50&submit=Search

> <PubChem CID>
162646484

> <PubChem SID>
461694139

$$$$

  Mrv2115 07222212352D          

 27 30  0  0  0  0            999 V2000
    4.0668    2.3479    0.0000 C   0  0  0  0  0  0  0  0  0  0  0  0
    3.3523    1.9354    0.0000 C   0  0  0  0  0  0  0  0  0  0  0  0
    3.3523    1.1104    0.0000 C   0  0  0  0  0  0  0  0  0  0  0  0
    2.6378    0.6979    0.0000 C   0  0  0  0  0  0  0  0  0  0  0  0
    2.6378   -0.1271    0.0000 C   0  0  0  0  0  0  0  0  0  0  0  0
    1.9233   -0.5396    0.0000 O   0  0  0  0  0  0  0  0  0  0  0  0
    3.3523   -0.5396    0.0000 O   0  0  0  0  0  0  0  0  0  0  0  0
    1.9233    1.1104    0.0000 C   0  0  0  0  0  0  0  0  0  0  0  0
    1.1387    0.8555    0.0000 N   0  0  0  0  0  0  0  0  0  0  0  0
    0.6538    1.5229    0.0000 C   0  0  0  0  0  0  0  0  0  0  0  0
   -0.1712    1.5229    0.0000 C   0  0  0  0  0  0  0  0  0  0  0  0
   -0.5837    0.8085    0.0000 C   0  0  0  0  0  0  0  0  0  0  0  0
   -1.4087    0.8085    0.0000 C   0  0  0  0  0  0  0  0  0  0  0  0
   -1.8212    1.5229    0.0000 C   0  0  0  0  0  0  0  0  0  0  0  0
   -2.6462    1.5229    0.0000 C   0  0  0  0  0  0  0  0  0  0  0  0
   -3.0587    0.8085    0.0000 C   0  0  0  0  0  0  0  0  0  0  0  0
   -2.6462    0.0940    0.0000 F   0  0  0  0  0  0  0  0  0  0  0  0
   -3.8837    0.8085    0.0000 C   0  0  0  0  0  0  0  0  0  0  0  0
   -4.2962    1.5229    0.0000 C   0  0  0  0  0  0  0  0  0  0  0  0
   -3.8837    2.2374    0.0000 C   0  0  0  0  0  0  0  0  0  0  0  0
   -3.0587    2.2374    0.0000 C   0  0  0  0  0  0  0  0  0  0  0  0
   -2.6462    2.9519    0.0000 F   0  0  0  0  0  0  0  0  0  0  0  0
   -1.4087    2.2374    0.0000 C   0  0  0  0  0  0  0  0  0  0  0  0
   -0.5837    2.2374    0.0000 C   0  0  0  0  0  0  0  0  0  0  0  0
    1.1387    2.1904    0.0000 N   0  0  0  0  0  0  0  0  0  0  0  0
    1.9233    1.9354    0.0000 C   0  0  0  0  0  0  0  0  0  0  0  0
    2.6378    2.3479    0.0000 C   0  0  0  0  0  0  0  0  0  0  0  0
  1  2  1  0  0  0  0
  2  3  4  0  0  0  0
  3  4  4  0  0  0  0
  4  5  1  0  0  0  0
  5  6  2  0  0  0  0
  5  7  1  0  0  0  0
  4  8  4  0  0  0  0
  8  9  4  0  0  0  0
  9 10  4  0  0  0  0
 10 11  1  0  0  0  0
 11 12  4  0  0  0  0
 12 13  4  0  0  0  0
 13 14  4  0  0  0  0
 14 15  1  0  0  0  0
 15 16  4  0  0  0  0
 16 17  1  0  0  0  0
 16 18  4  0  0  0  0
 18 19  4  0  0  0  0
 19 20  4  0  0  0  0
 20 21  4  0  0  0  0
 15 21  4  0  0  0  0
 21 22  1  0  0  0  0
 14 23  4  0  0  0  0
 23 24  4  0  0  0  0
 11 24  4  0  0  0  0
 10 25  4  0  0  0  0
 25 26  4  0  0  0  0
  8 26  4  0  0  0  0
 26 27  4  0  0  0  0
  2 27  4  0  0  0  0
M  STY  1   1 DAT
M  SAL   1  1   9
M  SDT   1 MRV_IMPLICIT_H                                        
M  SDD   1     0.5304   -0.4125    DR    ALL  0       0  
M  SED   1 IMPL_H1
M  END
> <IC50(uM)>
0.344

> <Outcome>
1.0

> <BindingDB ID>
297783

> <BindingDB MonomerID>
155439

> <BindingDB Ligand Name>
US9006454, I76

> <Curation/DataSource>
US Patent

> <Article DOI>
?

> <PMID>
?

> <Patent Number>
US9006454

> <Authors>
Thunuguntla, SS; Subramanya, H; Kunnam, SR; Sanivaru Vijay, SR; Bingi, C; Kusanur, R; Schwarz, M; Arlt, M

> <Link to Ligand in BindingDB>
http://www.bindingdb.org/bind/chemsearch/marvin/MolStructure.jsp?monomerid=155439

> <Link to Ligand-Target Pair in BindingDB>
http://www.bindingdb.org/jsp/dbsearch/PrimarySearch_ki.jsp?energyterm=kJ/mole&tag=r21&monomerid=155439&enzyme=Dihydroorotate+dehydrogenase&column=ki&startPg=0&Increment=50&submit=Search

> <PubChem CID>
46947382

> <PubChem SID>
253658376

$$$$

  Mrv2115 07222212352D          

  8  8  0  0  0  0            999 V2000
    0.7145    2.0625    0.0000 O   0  0  0  0  0  0  0  0  0  0  0  0
    0.7145    1.2375    0.0000 C   0  0  0  0  0  0  0  0  0  0  0  0
    1.4289    0.8250    0.0000 C   0  0  0  0  0  0  0  0  0  0  0  0
    1.4289   -0.0000    0.0000 C   0  0  0  0  0  0  0  0  0  0  0  0
    0.7145   -0.4125    0.0000 C   0  0  0  0  0  0  0  0  0  0  0  0
    0.7145   -1.2375    0.0000 O   0  0  0  0  0  0  0  0  0  0  0  0
    0.0000    0.0000    0.0000 C   0  0  0  0  0  0  0  0  0  0  0  0
    0.0000    0.8250    0.0000 C   0  0  0  0  0  0  0  0  0  0  0  0
  1  2  2  0  0  0  0
  2  3  1  0  0  0  0
  3  4  2  0  0  0  0
  4  5  1  0  0  0  0
  5  6  2  0  0  0  0
  5  7  1  0  0  0  0
  7  8  2  0  0  0  0
  2  8  1  0  0  0  0
M  END
> <IC50(uM)>
34.0

> <Outcome>
0.0

> <BindingDB ID>
51282872

> <BindingDB MonomerID>
22774

> <BindingDB Ligand Name>
1,4-Benzoquinone::Benzil-related compound, 53::CHEMBL8320::benzoquinone::cid_4650::cyclohexa-2,5-diene-1,4-dione

> <Curation/DataSource>
ChEMBL

> <Article DOI>
10.1016/j.ejmech.2019.02.018

> <PMID>
30776695

> <Patent Number>
?

> <Authors>
Calil, FA; David, JS; Chiappetta, ERC; Fumagalli, F; Mello, RB; Leite, FHA; Castilho, MS; Emery, FS; Nonato, MC

> <Link to Ligand in BindingDB>
http://www.bindingdb.org/bind/chemsearch/marvin/MolStructure.jsp?monomerid=22774

> <Link to Ligand-Target Pair in BindingDB>
http://www.bindingdb.org/jsp/dbsearch/PrimarySearch_ki.jsp?energyterm=kJ/mole&tag=r21&monomerid=22774&enzyme=Dihydroorotate+dehydrogenase&column=ki&startPg=0&Increment=50&submit=Search

> <PubChem CID>
4650

> <PubChem SID>
49846588

$$$$

  Mrv2115 07222212352D          

 22 24  0  0  0  0            999 V2000
    1.4289    4.1250    0.0000 N   0  0  0  0  0  0  0  0  0  0  0  0
    1.4289    3.3000    0.0000 C   0  0  0  0  0  0  0  0  0  0  0  0
    1.4289    2.4750    0.0000 C   0  0  0  0  0  0  0  0  0  0  0  0
    2.1434    2.0625    0.0000 C   0  0  0  0  0  0  0  0  0  0  0  0
    2.1434    1.2375    0.0000 C   0  0  0  0  0  0  0  0  0  0  0  0
    1.4289    0.8250    0.0000 C   0  0  0  0  0  0  0  0  0  0  0  0
    1.4289   -0.0000    0.0000 N   0  0  0  0  0  0  0  0  0  0  0  0
    0.7145   -0.4125    0.0000 C   0  0  0  0  0  0  0  0  0  0  0  0
    0.0000    0.0000    0.0000 S   0  0  0  0  0  0  0  0  0  0  0  0
    0.7145   -1.2375    0.0000 C   0  0  0  0  0  0  0  0  0  0  0  0
    1.3819   -1.7224    0.0000 C   0  0  0  0  0  0  0  0  0  0  0  0
    1.1270   -2.5070    0.0000 N   0  0  0  0  0  0  0  0  0  0  0  0
    0.3020   -2.5070    0.0000 O   0  0  0  0  0  0  0  0  0  0  0  0
    0.0470   -1.7224    0.0000 C   0  0  0  0  0  0  0  0  0  0  0  0
   -0.7376   -1.4675    0.0000 C   0  0  0  0  0  0  0  0  0  0  0  0
   -1.3507   -2.0195    0.0000 C   0  0  0  0  0  0  0  0  0  0  0  0
   -2.1353   -1.7646    0.0000 C   0  0  0  0  0  0  0  0  0  0  0  0
   -2.3068   -0.9576    0.0000 C   0  0  0  0  0  0  0  0  0  0  0  0
   -1.6937   -0.4056    0.0000 C   0  0  0  0  0  0  0  0  0  0  0  0
   -0.9091   -0.6605    0.0000 C   0  0  0  0  0  0  0  0  0  0  0  0
    0.7145    1.2375    0.0000 C   0  0  0  0  0  0  0  0  0  0  0  0
    0.7145    2.0625    0.0000 C   0  0  0  0  0  0  0  0  0  0  0  0
  1  2  3  0  0  0  0
  2  3  1  0  0  0  0
  3  4  4  0  0  0  0
  4  5  4  0  0  0  0
  5  6  4  0  0  0  0
  6  7  1  0  0  0  0
  7  8  1  0  0  0  0
  8  9  2  0  0  0  0
  8 10  1  0  0  0  0
 10 11  4  0  0  0  0
 11 12  4  0  0  0  0
 12 13  4  0  0  0  0
 13 14  4  0  0  0  0
 10 14  4  0  0  0  0
 14 15  1  0  0  0  0
 15 16  1  0  0  0  0
 16 17  1  0  0  0  0
 17 18  1  0  0  0  0
 18 19  1  0  0  0  0
 19 20  1  0  0  0  0
 15 20  1  0  0  0  0
  6 21  4  0  0  0  0
 21 22  4  0  0  0  0
  3 22  4  0  0  0  0
M  END
> <IC50(uM)>
50.0

> <Outcome>
0.0

> <BindingDB ID>
50123311

> <BindingDB MonomerID>
50071402

> <BindingDB Ligand Name>
5-Cyclohexyl-isoxazole-4-carbothioic acid (4-cyano-phenyl)-amide::CHEMBL71320

> <Curation/DataSource>
ChEMBL

> <Article DOI>
10.1016/s0960-894x(98)00365-5

> <PMID>
9873513

> <Patent Number>
?

> <Authors>
Albert, R; Knecht, H; Andersen, E; Hungerford, V; Schreier, MH; Papageorgiou, C

> <Link to Ligand in BindingDB>
http://www.bindingdb.org/bind/chemsearch/marvin/MolStructure.jsp?monomerid=50071402

> <Link to Ligand-Target Pair in BindingDB>
http://www.bindingdb.org/jsp/dbsearch/PrimarySearch_ki.jsp?energyterm=kJ/mole&tag=r21&monomerid=50071402&enzyme=Dihydroorotate+dehydrogenase&column=ki&startPg=0&Increment=50&submit=Search

> <PubChem CID>
44310717

> <PubChem SID>
103965156

$$$$

  Mrv2115 07222212352D          

 35 37  0  0  0  0            999 V2000
    0.7145   -3.7125    0.0000 C   0  0  0  0  0  0  0  0  0  0  0  0
    1.4289   -4.1250    0.0000 C   0  0  0  0  0  0  0  0  0  0  0  0
    2.1434   -3.7125    0.0000 O   0  0  0  0  0  0  0  0  0  0  0  0
    1.4289   -4.9500    0.0000 C   0  0  0  0  0  0  0  0  0  0  0  0
    0.7615   -5.4349    0.0000 N   0  0  0  0  0  0  0  0  0  0  0  0
    1.0164   -6.2195    0.0000 N   0  0  0  0  0  0  0  0  0  0  0  0
    0.5315   -6.8870    0.0000 C   0  0  0  0  0  0  0  0  0  0  0  0
    0.8671   -7.6407    0.0000 C   0  0  0  0  0  0  0  0  0  0  0  0
    0.3822   -8.3081    0.0000 C   0  0  0  0  0  0  0  0  0  0  0  0
    0.7177   -9.0618    0.0000 O   0  0  0  0  0  0  0  0  0  0  0  0
    1.5382   -9.1480    0.0000 C   0  0  0  0  0  0  0  0  0  0  0  0
    2.0231   -8.4806    0.0000 C   0  0  0  0  0  0  0  0  0  0  0  0
    1.8738   -9.9017    0.0000 C   0  0  0  0  0  0  0  0  0  0  0  0
    1.1201  -10.2372    0.0000 F   0  0  0  0  0  0  0  0  0  0  0  0
    2.6274   -9.5661    0.0000 F   0  0  0  0  0  0  0  0  0  0  0  0
    2.2093  -10.6554    0.0000 F   0  0  0  0  0  0  0  0  0  0  0  0
   -0.4383   -8.2219    0.0000 C   0  0  0  0  0  0  0  0  0  0  0  0
   -0.9232   -8.8893    0.0000 C   0  0  0  0  0  0  0  0  0  0  0  0
   -1.7437   -8.8031    0.0000 O   0  0  0  0  0  0  0  0  0  0  0  0
   -0.5877   -9.6430    0.0000 N   0  0  0  0  0  0  0  0  0  0  0  0
   -1.0726  -10.3104    0.0000 C   0  0  0  0  0  0  0  0  0  0  0  0
   -0.7371  -11.0641    0.0000 C   0  0  0  0  0  0  0  0  0  0  0  0
    0.0834  -11.1503    0.0000 Cl  0  0  0  0  0  0  0  0  0  0  0  0
   -1.2220  -11.7315    0.0000 C   0  0  0  0  0  0  0  0  0  0  0  0
   -2.0425  -11.6453    0.0000 C   0  0  0  0  0  0  0  0  0  0  0  0
   -2.3780  -10.8916    0.0000 C   0  0  0  0  0  0  0  0  0  0  0  0
   -1.8931  -10.2242    0.0000 C   0  0  0  0  0  0  0  0  0  0  0  0
   -2.2287   -9.4705    0.0000 Cl  0  0  0  0  0  0  0  0  0  0  0  0
   -0.7739   -7.4682    0.0000 C   0  0  0  0  0  0  0  0  0  0  0  0
   -0.2890   -6.8007    0.0000 C   0  0  0  0  0  0  0  0  0  0  0  0
   -0.6245   -6.0471    0.0000 F   0  0  0  0  0  0  0  0  0  0  0  0
    1.8414   -6.2195    0.0000 C   0  0  0  0  0  0  0  0  0  0  0  0
    2.3264   -6.8870    0.0000 O   0  0  0  0  0  0  0  0  0  0  0  0
    2.0964   -5.4349    0.0000 N   0  0  0  0  0  0  0  0  0  0  0  0
    2.8810   -5.1800    0.0000 C   0  0  0  0  0  0  0  0  0  0  0  0
  1  2  1  0  0  0  0
  2  3  1  0  0  0  0
  2  4  1  0  0  0  0
  4  5  4  0  0  0  0
  5  6  4  0  0  0  0
  6  7  1  0  0  0  0
  7  8  4  0  0  0  0
  8  9  4  0  0  0  0
  9 10  1  0  0  0  0
 10 11  1  0  0  0  0
 11 12  1  0  0  0  0
 11 13  1  0  0  0  0
 13 14  1  0  0  0  0
 13 15  1  0  0  0  0
 13 16  1  0  0  0  0
  9 17  4  0  0  0  0
 17 18  1  0  0  0  0
 18 19  2  0  0  0  0
 18 20  1  0  0  0  0
 20 21  1  0  0  0  0
 21 22  4  0  0  0  0
 22 23  1  0  0  0  0
 22 24  4  0  0  0  0
 24 25  4  0  0  0  0
 25 26  4  0  0  0  0
 26 27  4  0  0  0  0
 21 27  4  0  0  0  0
 27 28  1  0  0  0  0
 17 29  4  0  0  0  0
 29 30  4  0  0  0  0
  7 30  4  0  0  0  0
 30 31  1  0  0  0  0
  6 32  4  0  0  0  0
 32 33  2  0  0  0  0
 32 34  4  0  0  0  0
  4 34  4  0  0  0  0
 34 35  1  0  0  0  0
M  END
> <IC50(uM)>
0.0035

> <Outcome>
1.0

> <BindingDB ID>
972592; 1098746

> <BindingDB MonomerID>
470471

> <BindingDB Ligand Name>
N-(2,6-dichlorophenyl)-5-fluoro-4-{3-[(1S)-1-hydroxyethyl]-4-methyl-5-oxo-4,5-dihydro-1H-1,2,4-triazol-1-yl}-2-{[(2S)-1,1,1-trifluoropropan-2-yl]oxy}benzamide::US10815215, Example 134; N-(2,6-dichlorophenyl)-5-fluoro-4-{3-[(1S)-1-hydroxyethyl]-4-methyl-5-oxo-4,5-dihydro-1H-1,2,4-triazol-1-yl}-2-{[(2S)-1,1,1-trifluoropropan-2-yl]oxy}benzamide::US10815215, Example 134::US11130745, Example 134

> <Curation/DataSource>
US Patent

> <Article DOI>
?

> <PMID>
?

> <Patent Number>
US10815215; US11130745

> <Authors>
Gradl, SN; Nguyen, D; Eis, K; Gunther, J; Stellfeld, T; Janzer, A; Christian, S; Muller, T; Sheikh, SE; Zhou, HJ; Zhao, C; Sykes, DB; Ferrara, SJ; Liu, K; Krober, M; Merz, C; Niehues, M; Schafer, M; Zimmermann, K; Nising, CF; Gradl, SN; Nguyen, D; Eis, K; Gunther, J; Stellfeld, T; Janzer, A; Christian, S; Muller, T; Sheikh, SE; Sykes, DB; Ferrara, SJ; Krober, M; Merz, C; Niehues, M; Schafer, M; Zimmermann, K; Nising, CF

> <Link to Ligand in BindingDB>
http://www.bindingdb.org/bind/chemsearch/marvin/MolStructure.jsp?monomerid=470471

> <Link to Ligand-Target Pair in BindingDB>
http://www.bindingdb.org/jsp/dbsearch/PrimarySearch_ki.jsp?energyterm=kJ/mole&tag=r21&monomerid=470471&enzyme=Dihydroorotate+dehydrogenase&column=ki&startPg=0&Increment=50&submit=Search

> <PubChem CID>
134469964

> <PubChem SID>
441609648

$$$$

  Mrv2115 07222212352D          

 37 41  0  0  0  0            999 V2000
   -1.8659    1.4455    0.0000 C   0  0  0  0  0  0  0  0  0  0  0  0
   -2.6909    1.4455    0.0000 C   0  0  0  0  0  0  0  0  0  0  0  0
   -3.1034    0.7310    0.0000 O   0  0  0  0  0  0  0  0  0  0  0  0
   -2.6909    0.0165    0.0000 C   0  0  0  0  0  0  0  0  0  0  0  0
   -1.8659    0.0165    0.0000 C   0  0  0  0  0  0  0  0  0  0  0  0
   -1.4534   -0.6979    0.0000 C   0  0  0  0  0  0  0  0  0  0  0  0
   -0.6284   -0.6979    0.0000 N   0  0  0  0  0  0  0  0  0  0  0  0
   -0.1435   -1.3654    0.0000 N   0  0  0  0  0  0  0  0  0  0  0  0
    0.6411   -1.1104    0.0000 C   0  0  0  0  0  0  0  0  0  0  0  0
    0.6411   -0.2854    0.0000 N   0  0  0  0  0  0  0  0  0  0  0  0
   -0.1435   -0.0305    0.0000 C   0  0  0  0  0  0  0  0  0  0  0  0
   -0.3984    0.7541    0.0000 O   0  0  0  0  0  0  0  0  0  0  0  0
    1.3556    0.1271    0.0000 C   0  0  0  0  0  0  0  0  0  0  0  0
    2.0701   -0.2854    0.0000 C   0  0  0  0  0  0  0  0  0  0  0  0
    2.0701   -1.1104    0.0000 C   0  0  0  0  0  0  0  0  0  0  0  0
    1.3556   -1.5229    0.0000 C   0  0  0  0  0  0  0  0  0  0  0  0
   -1.8659   -1.4124    0.0000 C   0  0  0  0  0  0  0  0  0  0  0  0
   -1.4534   -2.1269    0.0000 F   0  0  0  0  0  0  0  0  0  0  0  0
   -2.6909   -1.4124    0.0000 C   0  0  0  0  0  0  0  0  0  0  0  0
   -3.1034   -0.6979    0.0000 C   0  0  0  0  0  0  0  0  0  0  0  0
   -3.9284   -0.6979    0.0000 C   0  0  0  0  0  0  0  0  0  0  0  0
   -4.3409    0.0165    0.0000 O   0  0  0  0  0  0  0  0  0  0  0  0
   -4.3409   -1.4124    0.0000 N   0  0  0  0  0  0  0  0  0  0  0  0
   -5.1659   -1.4124    0.0000 C   0  0  0  0  0  0  0  0  0  0  0  0
   -5.5784   -2.1269    0.0000 C   0  0  0  0  0  0  0  0  0  0  0  0
   -5.1659   -2.8414    0.0000 F   0  0  0  0  0  0  0  0  0  0  0  0
   -6.4034   -2.1269    0.0000 C   0  0  0  0  0  0  0  0  0  0  0  0
   -6.8159   -1.4124    0.0000 C   0  0  0  0  0  0  0  0  0  0  0  0
   -6.4034   -0.6979    0.0000 C   0  0  0  0  0  0  0  0  0  0  0  0
   -5.5784   -0.6979    0.0000 C   0  0  0  0  0  0  0  0  0  0  0  0
   -5.1659    0.0165    0.0000 F   0  0  0  0  0  0  0  0  0  0  0  0
   -3.1034    2.1599    0.0000 C   0  0  0  0  0  0  0  0  0  0  0  0
   -3.9284    2.1599    0.0000 C   0  0  0  0  0  0  0  0  0  0  0  0
   -4.3409    2.8744    0.0000 C   0  0  0  0  0  0  0  0  0  0  0  0
   -3.9284    3.5889    0.0000 C   0  0  0  0  0  0  0  0  0  0  0  0
   -3.1034    3.5889    0.0000 C   0  0  0  0  0  0  0  0  0  0  0  0
   -2.6909    2.8744    0.0000 C   0  0  0  0  0  0  0  0  0  0  0  0
  1  2  1  0  0  0  0
  2  3  1  0  0  0  0
  3  4  1  0  0  0  0
  4  5  4  0  0  0  0
  5  6  4  0  0  0  0
  6  7  1  0  0  0  0
  7  8  4  0  0  0  0
  8  9  4  0  0  0  0
  9 10  4  0  0  0  0
 10 11  4  0  0  0  0
  7 11  4  0  0  0  0
 11 12  2  0  0  0  0
 10 13  1  0  0  0  0
 13 14  1  0  0  0  0
 14 15  1  0  0  0  0
 15 16  1  0  0  0  0
  9 16  1  0  0  0  0
  6 17  4  0  0  0  0
 17 18  1  0  0  0  0
 17 19  4  0  0  0  0
 19 20  4  0  0  0  0
  4 20  4  0  0  0  0
 20 21  1  0  0  0  0
 21 22  2  0  0  0  0
 21 23  1  0  0  0  0
 23 24  1  0  0  0  0
 24 25  4  0  0  0  0
 25 26  1  0  0  0  0
 25 27  4  0  0  0  0
 27 28  4  0  0  0  0
 28 29  4  0  0  0  0
 29 30  4  0  0  0  0
 24 30  4  0  0  0  0
 30 31  1  0  0  0  0
  2 32  1  0  0  0  0
 32 33  1  0  0  0  0
 33 34  1  0  0  0  0
 34 35  1  0  0  0  0
 35 36  1  0  0  0  0
 36 37  1  0  0  0  0
 32 37  1  0  0  0  0
M  END
> <IC50(uM)>
0.0052499999999999995

> <Outcome>
1.0

> <BindingDB ID>
1020544; 1020543

> <BindingDB MonomerID>
490483

> <BindingDB Ligand Name>
2-[(1S)-1-cyclohexylethoxy]-N-(2,6-difluorophenyl)-5-fluoro-4-(3-oxo-5,6,7,8-tetrahydro[1,2,4]triazolo[4,3-a]pyridin-2(3H)-yl)benzamide::US10968216, Example 151

> <Curation/DataSource>
US Patent

> <Article DOI>
?

> <PMID>
?

> <Patent Number>
US10968216

> <Authors>
Gradl, SN; Nguyen, D; Eis, K; Gunther, J; Stellfeld, T; Janzer, A; Christian, S; Mueller, T; Sheikh, SE; Zhou, HJ; Zhao, C; Sykes, DB; Ferrara, SJ; Liu, K; Herbert, SA; Merz, C; Niehues, M; Nising, CF; Schafer, M; Zimmermann, K; Knablein, J; Thede, K; Faupel, T

> <Link to Ligand in BindingDB>
http://www.bindingdb.org/bind/chemsearch/marvin/MolStructure.jsp?monomerid=490483

> <Link to Ligand-Target Pair in BindingDB>
http://www.bindingdb.org/jsp/dbsearch/PrimarySearch_ki.jsp?energyterm=kJ/mole&tag=r21&monomerid=490483&enzyme=Dihydroorotate+dehydrogenase&column=ki&startPg=0&Increment=50&submit=Search

> <PubChem CID>
134474410

> <PubChem SID>
447117210

$$$$

  Mrv2115 07222212352D          

 27 30  0  0  0  0            999 V2000
    2.1434   -0.4125    0.0000 C   0  0  0  0  0  0  0  0  0  0  0  0
    2.1434   -1.2375    0.0000 O   0  0  0  0  0  0  0  0  0  0  0  0
    1.4289   -1.6500    0.0000 C   0  0  0  0  0  0  0  0  0  0  0  0
    1.4289   -2.4750    0.0000 N   0  0  0  0  0  0  0  0  0  0  0  0
    0.7145   -2.8875    0.0000 C   0  0  0  0  0  0  0  0  0  0  0  0
    0.0000   -2.4750    0.0000 C   0  0  0  0  0  0  0  0  0  0  0  0
   -0.7145   -2.8875    0.0000 N   0  0  0  0  0  0  0  0  0  0  0  0
   -0.7145   -3.7125    0.0000 C   0  0  0  0  0  0  0  0  0  0  0  0
    0.0000   -4.1250    0.0000 C   0  0  0  0  0  0  0  0  0  0  0  0
    0.0000   -4.9500    0.0000 C   0  0  0  0  0  0  0  0  0  0  0  0
   -0.7145   -5.3625    0.0000 C   0  0  0  0  0  0  0  0  0  0  0  0
   -0.7145   -6.1875    0.0000 C   0  0  0  0  0  0  0  0  0  0  0  0
   -0.3020   -6.9020    0.0000 C   0  0  0  0  0  0  0  0  0  0  0  0
   -1.1270   -6.9020    0.0000 C   0  0  0  0  0  0  0  0  0  0  0  0
   -1.4289   -4.9500    0.0000 C   0  0  0  0  0  0  0  0  0  0  0  0
   -1.4289   -4.1250    0.0000 C   0  0  0  0  0  0  0  0  0  0  0  0
   -2.1434   -3.7125    0.0000 C   0  0  0  0  0  0  0  0  0  0  0  0
   -2.1434   -2.8875    0.0000 O   0  0  0  0  0  0  0  0  0  0  0  0
   -2.8579   -4.1250    0.0000 O   0  0  0  0  0  0  0  0  0  0  0  0
    0.0000   -1.6500    0.0000 C   0  0  0  0  0  0  0  0  0  0  0  0
    0.7145   -1.2375    0.0000 C   0  0  0  0  0  0  0  0  0  0  0  0
    0.7145   -0.4125    0.0000 C   0  0  0  0  0  0  0  0  0  0  0  0
    0.0000    0.0000    0.0000 C   0  0  0  0  0  0  0  0  0  0  0  0
    0.0000    0.8250    0.0000 C   0  0  0  0  0  0  0  0  0  0  0  0
    0.7145    1.2375    0.0000 C   0  0  0  0  0  0  0  0  0  0  0  0
    1.4289    0.8250    0.0000 C   0  0  0  0  0  0  0  0  0  0  0  0
    1.4289   -0.0000    0.0000 C   0  0  0  0  0  0  0  0  0  0  0  0
  1  2  1  0  0  0  0
  2  3  1  0  0  0  0
  3  4  4  0  0  0  0
  4  5  4  0  0  0  0
  5  6  4  0  0  0  0
  6  7  1  0  0  0  0
  7  8  1  0  0  0  0
  8  9  4  0  0  0  0
  9 10  4  0  0  0  0
 10 11  4  0  0  0  0
 11 12  1  0  0  0  0
 12 13  1  0  0  0  0
 13 14  1  0  0  0  0
 12 14  1  0  0  0  0
 11 15  4  0  0  0  0
 15 16  4  0  0  0  0
  8 16  4  0  0  0  0
 16 17  1  0  0  0  0
 17 18  2  0  0  0  0
 17 19  1  0  0  0  0
  6 20  4  0  0  0  0
 20 21  4  0  0  0  0
  3 21  4  0  0  0  0
 21 22  1  0  0  0  0
 22 23  4  0  0  0  0
 23 24  4  0  0  0  0
 24 25  4  0  0  0  0
 25 26  4  0  0  0  0
 26 27  4  0  0  0  0
 22 27  4  0  0  0  0
M  END
> <IC50(uM)>
0.049

> <Outcome>
1.0

> <BindingDB ID>
219979

> <BindingDB MonomerID>
102449

> <BindingDB Ligand Name>
US8536165, 7

> <Curation/DataSource>
US Patent

> <Article DOI>
?

> <PMID>
?

> <Patent Number>
US8536165

> <Authors>
Castro Palomino Laria, JC; Terricabras Belart, E; Erra Sola, M; Navarro Romero, E; Fonquerna Pou, S; Cardus Figueras, A; Lozoya Toribio, ME

> <Link to Ligand in BindingDB>
http://www.bindingdb.org/bind/chemsearch/marvin/MolStructure.jsp?monomerid=102449

> <Link to Ligand-Target Pair in BindingDB>
http://www.bindingdb.org/jsp/dbsearch/PrimarySearch_ki.jsp?energyterm=kJ/mole&tag=r21&monomerid=102449&enzyme=Dihydroorotate+dehydrogenase&column=ki&startPg=0&Increment=50&submit=Search

> <PubChem CID>
25186449

> <PubChem SID>
172097740

$$$$

  Mrv2115 07222212352D          

 22 24  0  0  0  0            999 V2000
   -0.7145   -1.2375    0.0000 O   0  0  0  0  0  0  0  0  0  0  0  0
    0.0000   -1.6500    0.0000 C   0  0  0  0  0  0  0  0  0  0  0  0
    0.0000   -2.4750    0.0000 N   0  0  0  0  0  0  0  0  0  0  0  0
   -0.7145   -2.8875    0.0000 C   0  0  0  0  0  0  0  0  0  0  0  0
   -1.4289   -2.4750    0.0000 C   0  0  0  0  0  0  0  0  0  0  0  0
   -2.1434   -2.8875    0.0000 C   0  0  0  0  0  0  0  0  0  0  0  0
   -2.1434   -3.7125    0.0000 C   0  0  0  0  0  0  0  0  0  0  0  0
   -1.4289   -4.1250    0.0000 C   0  0  0  0  0  0  0  0  0  0  0  0
   -0.7145   -3.7125    0.0000 C   0  0  0  0  0  0  0  0  0  0  0  0
    0.0000   -4.1250    0.0000 C   0  0  0  0  0  0  0  0  0  0  0  0
    0.7145   -3.7125    0.0000 O   0  0  0  0  0  0  0  0  0  0  0  0
    0.0000   -4.9500    0.0000 O   0  0  0  0  0  0  0  0  0  0  0  0
    0.7145   -1.2375    0.0000 C   0  0  0  0  0  0  0  0  0  0  0  0
    0.7145   -0.4125    0.0000 C   0  0  0  0  0  0  0  0  0  0  0  0
    1.4289    0.0000    0.0000 C   0  0  0  0  0  0  0  0  0  0  0  0
    2.1434   -0.4125    0.0000 C   0  0  0  0  0  0  0  0  0  0  0  0
    2.8579    0.0000    0.0000 C   0  0  0  0  0  0  0  0  0  0  0  0
    3.5724   -0.4125    0.0000 C   0  0  0  0  0  0  0  0  0  0  0  0
    3.5724   -1.2375    0.0000 C   0  0  0  0  0  0  0  0  0  0  0  0
    2.8579   -1.6500    0.0000 C   0  0  0  0  0  0  0  0  0  0  0  0
    2.1434   -1.2375    0.0000 C   0  0  0  0  0  0  0  0  0  0  0  0
    1.4289   -1.6500    0.0000 C   0  0  0  0  0  0  0  0  0  0  0  0
  1  2  2  0  0  0  0
  2  3  1  0  0  0  0
  3  4  1  0  0  0  0
  4  5  4  0  0  0  0
  5  6  4  0  0  0  0
  6  7  4  0  0  0  0
  7  8  4  0  0  0  0
  8  9  4  0  0  0  0
  4  9  4  0  0  0  0
  9 10  1  0  0  0  0
 10 11  2  0  0  0  0
 10 12  1  0  0  0  0
  2 13  1  0  0  0  0
 13 14  4  0  0  0  0
 14 15  4  0  0  0  0
 15 16  4  0  0  0  0
 16 17  4  0  0  0  0
 17 18  4  0  0  0  0
 18 19  4  0  0  0  0
 19 20  4  0  0  0  0
 20 21  4  0  0  0  0
 16 21  4  0  0  0  0
 21 22  4  0  0  0  0
 13 22  4  0  0  0  0
M  END
> <IC50(uM)>
13.8

> <Outcome>
0.0

> <BindingDB ID>
29203

> <BindingDB MonomerID>
16098

> <BindingDB Ligand Name>
2-(naphthalene-2-amido)benzoic acid::2-[(naphthalen-2-ylcarbonyl)amino]benzoic acid::Inhibitor 6

> <Curation/DataSource>
Curated from the literature by BindingDB

> <Article DOI>
10.1016/j.bmcl.2005.09.045

> <PMID>
16236496

> <Patent Number>
?

> <Authors>
Heikkila, T; Thirumalairajan, S; Davies, M; Parsons, MR; McConkey, AG; Fishwick, CW; Johnson, AP

> <Link to Ligand in BindingDB>
http://www.bindingdb.org/bind/chemsearch/marvin/MolStructure.jsp?monomerid=16098

> <Link to Ligand-Target Pair in BindingDB>
http://www.bindingdb.org/jsp/dbsearch/PrimarySearch_ki.jsp?energyterm=kJ/mole&tag=r21&monomerid=16098&enzyme=Dihydroorotate+dehydrogenase&column=ki&startPg=0&Increment=50&submit=Search

> <PubChem CID>
13707619

> <PubChem SID>
46516359

$$$$

  Mrv2115 07222212352D          

 31 34  0  0  0  0            999 V2000
    4.0668    2.3479    0.0000 C   0  0  0  0  0  0  0  0  0  0  0  0
    3.3523    1.9354    0.0000 C   0  0  0  0  0  0  0  0  0  0  0  0
    3.3523    1.1104    0.0000 C   0  0  0  0  0  0  0  0  0  0  0  0
    2.6378    0.6979    0.0000 C   0  0  0  0  0  0  0  0  0  0  0  0
    2.6378   -0.1271    0.0000 C   0  0  0  0  0  0  0  0  0  0  0  0
    1.9233   -0.5396    0.0000 O   0  0  0  0  0  0  0  0  0  0  0  0
    3.3523   -0.5396    0.0000 O   0  0  0  0  0  0  0  0  0  0  0  0
    1.9233    1.1104    0.0000 C   0  0  0  0  0  0  0  0  0  0  0  0
    1.1387    0.8555    0.0000 N   0  0  0  0  0  0  0  0  0  0  0  0
    0.6538    1.5229    0.0000 C   0  0  0  0  0  0  0  0  0  0  0  0
   -0.1712    1.5229    0.0000 C   0  0  0  0  0  0  0  0  0  0  0  0
   -0.5837    0.8085    0.0000 C   0  0  0  0  0  0  0  0  0  0  0  0
   -0.1712    0.0940    0.0000 F   0  0  0  0  0  0  0  0  0  0  0  0
   -1.4087    0.8085    0.0000 C   0  0  0  0  0  0  0  0  0  0  0  0
   -1.8212    0.0940    0.0000 F   0  0  0  0  0  0  0  0  0  0  0  0
   -1.8212    1.5229    0.0000 C   0  0  0  0  0  0  0  0  0  0  0  0
   -2.6462    1.5229    0.0000 C   0  0  0  0  0  0  0  0  0  0  0  0
   -3.0587    0.8085    0.0000 C   0  0  0  0  0  0  0  0  0  0  0  0
   -3.8837    0.8085    0.0000 C   0  0  0  0  0  0  0  0  0  0  0  0
   -4.2962    1.5229    0.0000 C   0  0  0  0  0  0  0  0  0  0  0  0
   -5.1212    1.5229    0.0000 F   0  0  0  0  0  0  0  0  0  0  0  0
   -3.8837    2.2374    0.0000 C   0  0  0  0  0  0  0  0  0  0  0  0
   -4.2962    2.9519    0.0000 F   0  0  0  0  0  0  0  0  0  0  0  0
   -3.0587    2.2374    0.0000 C   0  0  0  0  0  0  0  0  0  0  0  0
   -1.4087    2.2374    0.0000 C   0  0  0  0  0  0  0  0  0  0  0  0
   -1.8212    2.9519    0.0000 F   0  0  0  0  0  0  0  0  0  0  0  0
   -0.5837    2.2374    0.0000 C   0  0  0  0  0  0  0  0  0  0  0  0
   -0.1712    2.9519    0.0000 F   0  0  0  0  0  0  0  0  0  0  0  0
    1.1387    2.1904    0.0000 N   0  0  0  0  0  0  0  0  0  0  0  0
    1.9233    1.9354    0.0000 C   0  0  0  0  0  0  0  0  0  0  0  0
    2.6378    2.3479    0.0000 C   0  0  0  0  0  0  0  0  0  0  0  0
  1  2  1  0  0  0  0
  2  3  4  0  0  0  0
  3  4  4  0  0  0  0
  4  5  1  0  0  0  0
  5  6  2  0  0  0  0
  5  7  1  0  0  0  0
  4  8  4  0  0  0  0
  8  9  4  0  0  0  0
  9 10  4  0  0  0  0
 10 11  1  0  0  0  0
 11 12  4  0  0  0  0
 12 13  1  0  0  0  0
 12 14  4  0  0  0  0
 14 15  1  0  0  0  0
 14 16  4  0  0  0  0
 16 17  1  0  0  0  0
 17 18  4  0  0  0  0
 18 19  4  0  0  0  0
 19 20  4  0  0  0  0
 20 21  1  0  0  0  0
 20 22  4  0  0  0  0
 22 23  1  0  0  0  0
 22 24  4  0  0  0  0
 17 24  4  0  0  0  0
 16 25  4  0  0  0  0
 25 26  1  0  0  0  0
 25 27  4  0  0  0  0
 11 27  4  0  0  0  0
 27 28  1  0  0  0  0
 10 29  4  0  0  0  0
 29 30  4  0  0  0  0
  8 30  4  0  0  0  0
 30 31  4  0  0  0  0
  2 31  4  0  0  0  0
M  STY  1   1 DAT
M  SAL   1  1  29
M  SDT   1 MRV_IMPLICIT_H                                        
M  SDD   1     0.5304   -0.4125    DR    ALL  0       0  
M  SED   1 IMPL_H1
M  END
> <IC50(uM)>
0.314

> <Outcome>
1.0

> <BindingDB ID>
297847

> <BindingDB MonomerID>
155503

> <BindingDB Ligand Name>
US9006454, I145

> <Curation/DataSource>
US Patent

> <Article DOI>
?

> <PMID>
?

> <Patent Number>
US9006454

> <Authors>
Thunuguntla, SS; Subramanya, H; Kunnam, SR; Sanivaru Vijay, SR; Bingi, C; Kusanur, R; Schwarz, M; Arlt, M

> <Link to Ligand in BindingDB>
http://www.bindingdb.org/bind/chemsearch/marvin/MolStructure.jsp?monomerid=155503

> <Link to Ligand-Target Pair in BindingDB>
http://www.bindingdb.org/jsp/dbsearch/PrimarySearch_ki.jsp?energyterm=kJ/mole&tag=r21&monomerid=155503&enzyme=Dihydroorotate+dehydrogenase&column=ki&startPg=0&Increment=50&submit=Search

> <PubChem CID>
58073749

> <PubChem SID>
253658440

$$$$

  Mrv2115 07222212352D          

 20 21  0  0  0  0            999 V2000
    1.4289   -1.6500    0.0000 C   0  0  0  0  0  0  0  0  0  0  0  0
    1.4289   -2.4750    0.0000 C   0  0  0  0  0  0  0  0  0  0  0  0
    2.1434   -2.8875    0.0000 C   0  0  0  0  0  0  0  0  0  0  0  0
    2.1434   -3.7125    0.0000 C   0  0  0  0  0  0  0  0  0  0  0  0
    1.4289   -4.1250    0.0000 C   0  0  0  0  0  0  0  0  0  0  0  0
    1.4289   -4.9500    0.0000 C   0  0  0  0  0  0  0  0  0  0  0  0
    2.1434   -5.3625    0.0000 C   0  0  0  0  0  0  0  0  0  0  0  0
    2.1434   -6.1875    0.0000 C   0  0  0  0  0  0  0  0  0  0  0  0
    2.8579   -6.6000    0.0000 C   0  0  0  0  0  0  0  0  0  0  0  0
    3.5724   -6.1875    0.0000 C   0  0  0  0  0  0  0  0  0  0  0  0
    4.2868   -6.6000    0.0000 O   0  0  0  0  0  0  0  0  0  0  0  0
    3.5724   -5.3625    0.0000 O   0  0  0  0  0  0  0  0  0  0  0  0
    2.8579   -7.4250    0.0000 N   0  0  0  0  0  0  0  0  0  0  0  0
    2.1434   -7.8375    0.0000 C   0  0  0  0  0  0  0  0  0  0  0  0
    2.1434   -8.6625    0.0000 O   0  0  0  0  0  0  0  0  0  0  0  0
    1.4289   -7.4250    0.0000 N   0  0  0  0  0  0  0  0  0  0  0  0
    1.4289   -6.6000    0.0000 C   0  0  0  0  0  0  0  0  0  0  0  0
    0.7145   -6.1875    0.0000 O   0  0  0  0  0  0  0  0  0  0  0  0
    0.7145   -3.7125    0.0000 C   0  0  0  0  0  0  0  0  0  0  0  0
    0.7145   -2.8875    0.0000 C   0  0  0  0  0  0  0  0  0  0  0  0
  1  2  1  0  0  0  0
  2  3  4  0  0  0  0
  3  4  4  0  0  0  0
  4  5  4  0  0  0  0
  5  6  1  0  0  0  0
  6  7  1  0  0  0  0
  7  8  1  0  0  0  0
  8  9  4  0  0  0  0
  9 10  1  0  0  0  0
 10 11  2  0  0  0  0
 10 12  1  0  0  0  0
  9 13  4  0  0  0  0
 13 14  4  0  0  0  0
 14 15  2  0  0  0  0
 14 16  4  0  0  0  0
 16 17  4  0  0  0  0
  8 17  4  0  0  0  0
 17 18  2  0  0  0  0
  5 19  4  0  0  0  0
 19 20  4  0  0  0  0
  2 20  4  0  0  0  0
M  STY  2   1 DAT   2 DAT
M  SAL   1  1  13
M  SDT   1 MRV_IMPLICIT_H                                        
M  SDD   1     0.5304   -0.4125    DR    ALL  0       0  
M  SED   1 IMPL_H1
M  SAL   2  1  16
M  SDT   2 MRV_IMPLICIT_H                                        
M  SDD   2     0.5304   -0.4125    DR    ALL  0       0  
M  SED   2 IMPL_H1
M  END
> <IC50(uM)>
0.0058

> <Outcome>
1.0

> <BindingDB ID>
50555331

> <BindingDB MonomerID>
50211954

> <BindingDB Ligand Name>
CHEMBL3901542

> <Curation/DataSource>
ChEMBL

> <Article DOI>
10.1016/j.bmc.2017.01.009

> <PMID>
28118956

> <Patent Number>
?

> <Authors>
Inaoka, DK; Iida, M; Hashimoto, S; Tabuchi, T; Kuranaga, T; Balogun, EO; Honma, T; Tanaka, A; Harada, S; Nara, T; Kita, K; Inoue, M

> <Link to Ligand in BindingDB>
http://www.bindingdb.org/bind/chemsearch/marvin/MolStructure.jsp?monomerid=50211954

> <Link to Ligand-Target Pair in BindingDB>
http://www.bindingdb.org/jsp/dbsearch/PrimarySearch_ki.jsp?energyterm=kJ/mole&tag=r21&monomerid=50211954&enzyme=Dihydroorotate+dehydrogenase&column=ki&startPg=0&Increment=50&submit=Search

> <PubChem CID>
134134984

> <PubChem SID>
375983077

$$$$

  Mrv2115 07222212352D          

 37 41  0  0  0  0            999 V2000
    4.0668    2.3479    0.0000 C   0  0  0  0  0  0  0  0  0  0  0  0
    3.3523    1.9354    0.0000 C   0  0  0  0  0  0  0  0  0  0  0  0
    3.3523    1.1104    0.0000 C   0  0  0  0  0  0  0  0  0  0  0  0
    2.6378    0.6979    0.0000 C   0  0  0  0  0  0  0  0  0  0  0  0
    2.6378   -0.1271    0.0000 C   0  0  0  0  0  0  0  0  0  0  0  0
    1.9233   -0.5396    0.0000 O   0  0  0  0  0  0  0  0  0  0  0  0
    3.3523   -0.5396    0.0000 O   0  0  0  0  0  0  0  0  0  0  0  0
    1.9233    1.1104    0.0000 C   0  0  0  0  0  0  0  0  0  0  0  0
    1.1387    0.8555    0.0000 N   0  0  0  0  0  0  0  0  0  0  0  0
    0.6538    1.5229    0.0000 C   0  0  0  0  0  0  0  0  0  0  0  0
   -0.1712    1.5229    0.0000 C   0  0  0  0  0  0  0  0  0  0  0  0
   -0.5837    0.8085    0.0000 C   0  0  0  0  0  0  0  0  0  0  0  0
   -0.1712    0.0940    0.0000 F   0  0  0  0  0  0  0  0  0  0  0  0
   -1.4087    0.8085    0.0000 C   0  0  0  0  0  0  0  0  0  0  0  0
   -1.8212    0.0940    0.0000 F   0  0  0  0  0  0  0  0  0  0  0  0
   -1.8212    1.5229    0.0000 C   0  0  0  0  0  0  0  0  0  0  0  0
   -2.6462    1.5229    0.0000 C   0  0  0  0  0  0  0  0  0  0  0  0
   -3.0587    0.8085    0.0000 C   0  0  0  0  0  0  0  0  0  0  0  0
   -3.8837    0.8085    0.0000 C   0  0  0  0  0  0  0  0  0  0  0  0
   -4.2962    1.5229    0.0000 C   0  0  0  0  0  0  0  0  0  0  0  0
   -3.8837    2.2374    0.0000 C   0  0  0  0  0  0  0  0  0  0  0  0
   -3.0587    2.2374    0.0000 C   0  0  0  0  0  0  0  0  0  0  0  0
   -2.6462    2.9519    0.0000 O   0  0  0  0  0  0  0  0  0  0  0  0
   -3.0587    3.6664    0.0000 C   0  0  0  0  0  0  0  0  0  0  0  0
   -2.6462    4.3808    0.0000 C   0  0  0  0  0  0  0  0  0  0  0  0
   -3.0587    5.0953    0.0000 C   0  0  0  0  0  0  0  0  0  0  0  0
   -2.6462    5.8098    0.0000 C   0  0  0  0  0  0  0  0  0  0  0  0
   -1.8212    5.8098    0.0000 C   0  0  0  0  0  0  0  0  0  0  0  0
   -1.4087    5.0953    0.0000 C   0  0  0  0  0  0  0  0  0  0  0  0
   -1.8212    4.3808    0.0000 C   0  0  0  0  0  0  0  0  0  0  0  0
   -1.4087    2.2374    0.0000 C   0  0  0  0  0  0  0  0  0  0  0  0
   -1.8212    2.9519    0.0000 F   0  0  0  0  0  0  0  0  0  0  0  0
   -0.5837    2.2374    0.0000 C   0  0  0  0  0  0  0  0  0  0  0  0
   -0.1712    2.9519    0.0000 F   0  0  0  0  0  0  0  0  0  0  0  0
    1.1387    2.1904    0.0000 N   0  0  0  0  0  0  0  0  0  0  0  0
    1.9233    1.9354    0.0000 C   0  0  0  0  0  0  0  0  0  0  0  0
    2.6378    2.3479    0.0000 C   0  0  0  0  0  0  0  0  0  0  0  0
  1  2  1  0  0  0  0
  2  3  4  0  0  0  0
  3  4  4  0  0  0  0
  4  5  1  0  0  0  0
  5  6  2  0  0  0  0
  5  7  1  0  0  0  0
  4  8  4  0  0  0  0
  8  9  4  0  0  0  0
  9 10  4  0  0  0  0
 10 11  1  0  0  0  0
 11 12  4  0  0  0  0
 12 13  1  0  0  0  0
 12 14  4  0  0  0  0
 14 15  1  0  0  0  0
 14 16  4  0  0  0  0
 16 17  1  0  0  0  0
 17 18  4  0  0  0  0
 18 19  4  0  0  0  0
 19 20  4  0  0  0  0
 20 21  4  0  0  0  0
 21 22  4  0  0  0  0
 17 22  4  0  0  0  0
 22 23  1  0  0  0  0
 23 24  1  0  0  0  0
 24 25  1  0  0  0  0
 25 26  4  0  0  0  0
 26 27  4  0  0  0  0
 27 28  4  0  0  0  0
 28 29  4  0  0  0  0
 29 30  4  0  0  0  0
 25 30  4  0  0  0  0
 16 31  4  0  0  0  0
 31 32  1  0  0  0  0
 31 33  4  0  0  0  0
 11 33  4  0  0  0  0
 33 34  1  0  0  0  0
 10 35  4  0  0  0  0
 35 36  4  0  0  0  0
  8 36  4  0  0  0  0
 36 37  4  0  0  0  0
  2 37  4  0  0  0  0
M  STY  1   1 DAT
M  SAL   1  1   9
M  SDT   1 MRV_IMPLICIT_H                                        
M  SDD   1     0.5304   -0.4125    DR    ALL  0       0  
M  SED   1 IMPL_H1
M  END
> <IC50(uM)>
0.06

> <Outcome>
1.0

> <BindingDB ID>
297802

> <BindingDB MonomerID>
155458

> <BindingDB Ligand Name>
US9006454, I100

> <Curation/DataSource>
US Patent

> <Article DOI>
?

> <PMID>
?

> <Patent Number>
US9006454

> <Authors>
Thunuguntla, SS; Subramanya, H; Kunnam, SR; Sanivaru Vijay, SR; Bingi, C; Kusanur, R; Schwarz, M; Arlt, M

> <Link to Ligand in BindingDB>
http://www.bindingdb.org/bind/chemsearch/marvin/MolStructure.jsp?monomerid=155458

> <Link to Ligand-Target Pair in BindingDB>
http://www.bindingdb.org/jsp/dbsearch/PrimarySearch_ki.jsp?energyterm=kJ/mole&tag=r21&monomerid=155458&enzyme=Dihydroorotate+dehydrogenase&column=ki&startPg=0&Increment=50&submit=Search

> <PubChem CID>
88582992

> <PubChem SID>
253658395

$$$$

  Mrv2115 07222212352D          

 23 25  0  0  0  0            999 V2000
   -1.4087    0.0165    0.0000 C   0  0  0  0  0  0  0  0  0  0  0  0
   -0.9962   -0.6979    0.0000 C   0  0  0  0  0  0  0  0  0  0  0  0
   -0.1712   -0.6979    0.0000 C   0  0  0  0  0  0  0  0  0  0  0  0
   -0.1712   -1.5229    0.0000 F   0  0  0  0  0  0  0  0  0  0  0  0
   -0.1712    0.1271    0.0000 F   0  0  0  0  0  0  0  0  0  0  0  0
    0.6538   -0.6979    0.0000 C   0  0  0  0  0  0  0  0  0  0  0  0
    1.1387   -0.0305    0.0000 N   0  0  0  0  0  0  0  0  0  0  0  0
    1.9233   -0.2854    0.0000 C   0  0  0  0  0  0  0  0  0  0  0  0
    2.6378    0.1271    0.0000 N   0  0  0  0  0  0  0  0  0  0  0  0
    3.3523   -0.2854    0.0000 C   0  0  0  0  0  0  0  0  0  0  0  0
    4.0668    0.1271    0.0000 C   0  0  0  0  0  0  0  0  0  0  0  0
    3.3523   -1.1104    0.0000 C   0  0  0  0  0  0  0  0  0  0  0  0
    2.6378   -1.5229    0.0000 C   0  0  0  0  0  0  0  0  0  0  0  0
    2.6378   -2.3479    0.0000 N   0  0  0  0  0  0  0  0  0  0  0  0
    1.9233   -2.7604    0.0000 C   0  0  0  0  0  0  0  0  0  0  0  0
    1.9233   -3.5854    0.0000 C   0  0  0  0  0  0  0  0  0  0  0  0
    1.2089   -3.9979    0.0000 C   0  0  0  0  0  0  0  0  0  0  0  0
    0.4944   -3.5854    0.0000 C   0  0  0  0  0  0  0  0  0  0  0  0
   -0.2201   -3.9979    0.0000 Cl  0  0  0  0  0  0  0  0  0  0  0  0
    0.4944   -2.7604    0.0000 C   0  0  0  0  0  0  0  0  0  0  0  0
    1.2089   -2.3479    0.0000 C   0  0  0  0  0  0  0  0  0  0  0  0
    1.9233   -1.1104    0.0000 N   0  0  0  0  0  0  0  0  0  0  0  0
    1.1387   -1.3654    0.0000 N   0  0  0  0  0  0  0  0  0  0  0  0
  1  2  1  0  0  0  0
  2  3  1  0  0  0  0
  3  4  1  0  0  0  0
  3  5  1  0  0  0  0
  3  6  1  0  0  0  0
  6  7  4  0  0  0  0
  7  8  4  0  0  0  0
  8  9  4  0  0  0  0
  9 10  4  0  0  0  0
 10 11  1  0  0  0  0
 10 12  4  0  0  0  0
 12 13  4  0  0  0  0
 13 14  1  0  0  0  0
 14 15  1  0  0  0  0
 15 16  4  0  0  0  0
 16 17  4  0  0  0  0
 17 18  4  0  0  0  0
 18 19  1  0  0  0  0
 18 20  4  0  0  0  0
 20 21  4  0  0  0  0
 15 21  4  0  0  0  0
 13 22  4  0  0  0  0
  8 22  4  0  0  0  0
 22 23  4  0  0  0  0
  6 23  4  0  0  0  0
M  END
> <IC50(uM)>
100.0

> <Outcome>
0.0

> <BindingDB ID>
50720159

> <BindingDB MonomerID>
50365229

> <BindingDB Ligand Name>
CHEMBL1956286

> <Curation/DataSource>
ChEMBL

> <Article DOI>
10.1021/jm200592f

> <PMID>
21696174

> <Patent Number>
?

> <Authors>
Coteron, JM; Marco, M; Esquivias, J; Deng, X; White, KL; White, J; Koltun, M; El Mazouni, F; Kokkonda, S; Katneni, K; Bhamidipati, R; Shackleford, DM; Angulo-Barturen, I; Ferrer, SB; Jimenez-Diaz, MB; Gamo, FJ; Goldsmith, EJ; Charman, WN; Bathurst, I; Floyd, D; Matthews, D; Burrows, JN; Rathod, PK; Charman, SA; Phillips, MA

> <Link to Ligand in BindingDB>
http://www.bindingdb.org/bind/chemsearch/marvin/MolStructure.jsp?monomerid=50365229

> <Link to Ligand-Target Pair in BindingDB>
http://www.bindingdb.org/jsp/dbsearch/PrimarySearch_ki.jsp?energyterm=kJ/mole&tag=r21&monomerid=50365229&enzyme=Dihydroorotate+dehydrogenase&column=ki&startPg=0&Increment=50&submit=Search

> <PubChem CID>
53392704

> <PubChem SID>
136969291

$$$$

  Mrv2115 07222212352D          

 38 42  0  0  0  0            999 V2000
   -1.8659    1.4455    0.0000 C   0  0  0  0  0  0  0  0  0  0  0  0
   -2.6909    1.4455    0.0000 C   0  0  0  0  0  0  0  0  0  0  0  0
   -3.1034    0.7310    0.0000 O   0  0  0  0  0  0  0  0  0  0  0  0
   -2.6909    0.0165    0.0000 C   0  0  0  0  0  0  0  0  0  0  0  0
   -1.8659    0.0165    0.0000 C   0  0  0  0  0  0  0  0  0  0  0  0
   -1.4534   -0.6979    0.0000 C   0  0  0  0  0  0  0  0  0  0  0  0
   -0.6284   -0.6979    0.0000 N   0  0  0  0  0  0  0  0  0  0  0  0
   -0.1435   -1.3654    0.0000 N   0  0  0  0  0  0  0  0  0  0  0  0
    0.6411   -1.1104    0.0000 C   0  0  0  0  0  0  0  0  0  0  0  0
    0.6411   -0.2854    0.0000 N   0  0  0  0  0  0  0  0  0  0  0  0
   -0.1435   -0.0305    0.0000 C   0  0  0  0  0  0  0  0  0  0  0  0
   -0.3984    0.7541    0.0000 O   0  0  0  0  0  0  0  0  0  0  0  0
    1.3556    0.1271    0.0000 C   0  0  0  0  0  0  0  0  0  0  0  0
    2.0701   -0.2854    0.0000 C   0  0  0  0  0  0  0  0  0  0  0  0
    2.0701   -1.1104    0.0000 C   0  0  0  0  0  0  0  0  0  0  0  0
    1.3556   -1.5229    0.0000 C   0  0  0  0  0  0  0  0  0  0  0  0
   -1.8659   -1.4124    0.0000 C   0  0  0  0  0  0  0  0  0  0  0  0
   -1.4534   -2.1269    0.0000 F   0  0  0  0  0  0  0  0  0  0  0  0
   -2.6909   -1.4124    0.0000 C   0  0  0  0  0  0  0  0  0  0  0  0
   -3.1034   -0.6979    0.0000 C   0  0  0  0  0  0  0  0  0  0  0  0
   -3.9284   -0.6979    0.0000 C   0  0  0  0  0  0  0  0  0  0  0  0
   -4.3409    0.0165    0.0000 O   0  0  0  0  0  0  0  0  0  0  0  0
   -4.3409   -1.4124    0.0000 N   0  0  0  0  0  0  0  0  0  0  0  0
   -3.9284   -2.1269    0.0000 C   0  0  0  0  0  0  0  0  0  0  0  0
   -3.1034   -2.1269    0.0000 C   0  0  0  0  0  0  0  0  0  0  0  0
   -2.6909   -2.8414    0.0000 C   0  0  0  0  0  0  0  0  0  0  0  0
   -3.1034   -3.5558    0.0000 C   0  0  0  0  0  0  0  0  0  0  0  0
   -2.6909   -4.2703    0.0000 F   0  0  0  0  0  0  0  0  0  0  0  0
   -3.9284   -3.5558    0.0000 C   0  0  0  0  0  0  0  0  0  0  0  0
   -4.3409   -2.8414    0.0000 C   0  0  0  0  0  0  0  0  0  0  0  0
   -5.1659   -2.8414    0.0000 C   0  0  0  0  0  0  0  0  0  0  0  0
   -5.9909   -2.8414    0.0000 N   0  0  0  0  0  0  0  0  0  0  0  0
   -3.1034    2.1599    0.0000 C   0  0  0  0  0  0  0  0  0  0  0  0
   -3.9284    2.1599    0.0000 C   0  0  0  0  0  0  0  0  0  0  0  0
   -4.3409    2.8744    0.0000 C   0  0  0  0  0  0  0  0  0  0  0  0
   -3.9284    3.5889    0.0000 C   0  0  0  0  0  0  0  0  0  0  0  0
   -3.1034    3.5889    0.0000 C   0  0  0  0  0  0  0  0  0  0  0  0
   -2.6909    2.8744    0.0000 C   0  0  0  0  0  0  0  0  0  0  0  0
  1  2  1  0  0  0  0
  2  3  1  0  0  0  0
  3  4  1  0  0  0  0
  4  5  4  0  0  0  0
  5  6  4  0  0  0  0
  6  7  1  0  0  0  0
  7  8  4  0  0  0  0
  8  9  4  0  0  0  0
  9 10  4  0  0  0  0
 10 11  4  0  0  0  0
  7 11  4  0  0  0  0
 11 12  2  0  0  0  0
 10 13  1  0  0  0  0
 13 14  1  0  0  0  0
 14 15  1  0  0  0  0
 15 16  1  0  0  0  0
  9 16  1  0  0  0  0
  6 17  4  0  0  0  0
 17 18  1  0  0  0  0
 17 19  4  0  0  0  0
 19 20  4  0  0  0  0
  4 20  4  0  0  0  0
 20 21  1  0  0  0  0
 21 22  2  0  0  0  0
 21 23  1  0  0  0  0
 23 24  1  0  0  0  0
 24 25  4  0  0  0  0
 25 26  4  0  0  0  0
 26 27  4  0  0  0  0
 27 28  1  0  0  0  0
 27 29  4  0  0  0  0
 29 30  4  0  0  0  0
 24 30  4  0  0  0  0
 30 31  1  0  0  0  0
 31 32  3  0  0  0  0
  2 33  1  0  0  0  0
 33 34  1  0  0  0  0
 34 35  1  0  0  0  0
 35 36  1  0  0  0  0
 36 37  1  0  0  0  0
 37 38  1  0  0  0  0
 33 38  1  0  0  0  0
M  END
> <IC50(uM)>
0.025

> <Outcome>
1.0

> <BindingDB ID>
1020557

> <BindingDB MonomerID>
490496

> <BindingDB Ligand Name>
N-(2-cyano-4-fluorophenyl)-2-[(1S)-1-cyclohexylethoxy]-5-fluoro-4-(3-oxo-5,6,7,8-tetrahydro-[1,2,4]triazolo[4,3-a]pyridin-2(3H)-yl)benzamide::US10968216, Example 164

> <Curation/DataSource>
US Patent

> <Article DOI>
?

> <PMID>
?

> <Patent Number>
US10968216

> <Authors>
Gradl, SN; Nguyen, D; Eis, K; Gunther, J; Stellfeld, T; Janzer, A; Christian, S; Mueller, T; Sheikh, SE; Zhou, HJ; Zhao, C; Sykes, DB; Ferrara, SJ; Liu, K; Herbert, SA; Merz, C; Niehues, M; Nising, CF; Schafer, M; Zimmermann, K; Knablein, J; Thede, K; Faupel, T

> <Link to Ligand in BindingDB>
http://www.bindingdb.org/bind/chemsearch/marvin/MolStructure.jsp?monomerid=490496

> <Link to Ligand-Target Pair in BindingDB>
http://www.bindingdb.org/jsp/dbsearch/PrimarySearch_ki.jsp?energyterm=kJ/mole&tag=r21&monomerid=490496&enzyme=Dihydroorotate+dehydrogenase&column=ki&startPg=0&Increment=50&submit=Search

> <PubChem CID>
142335859

> <PubChem SID>
447117223

$$$$

  Mrv2115 07222212352D          

 29 32  0  0  0  0            999 V2000
   -3.0671    0.7042    0.0000 O   0  0  0  0  0  0  0  0  0  0  0  0
   -3.0671   -0.1208    0.0000 C   0  0  0  0  0  0  0  0  0  0  0  0
   -3.7816   -0.5333    0.0000 O   0  0  0  0  0  0  0  0  0  0  0  0
   -2.3527   -0.5333    0.0000 C   0  0  0  0  0  0  0  0  0  0  0  0
   -2.3527   -1.3583    0.0000 C   0  0  0  0  0  0  0  0  0  0  0  0
   -1.6382   -1.7708    0.0000 C   0  0  0  0  0  0  0  0  0  0  0  0
   -0.9237   -1.3583    0.0000 C   0  0  0  0  0  0  0  0  0  0  0  0
   -0.9237   -0.5333    0.0000 N   0  0  0  0  0  0  0  0  0  0  0  0
   -1.6382   -0.1208    0.0000 C   0  0  0  0  0  0  0  0  0  0  0  0
   -1.6382    0.7042    0.0000 N   0  0  0  0  0  0  0  0  0  0  0  0
   -0.9237    1.1167    0.0000 C   0  0  0  0  0  0  0  0  0  0  0  0
   -0.9237    1.9417    0.0000 C   0  0  0  0  0  0  0  0  0  0  0  0
   -1.6382    2.3542    0.0000 F   0  0  0  0  0  0  0  0  0  0  0  0
   -0.2093    2.3542    0.0000 C   0  0  0  0  0  0  0  0  0  0  0  0
    0.5052    1.9417    0.0000 C   0  0  0  0  0  0  0  0  0  0  0  0
    1.2197    2.3542    0.0000 C   0  0  0  0  0  0  0  0  0  0  0  0
    1.2197    3.1792    0.0000 C   0  0  0  0  0  0  0  0  0  0  0  0
    1.9341    3.5917    0.0000 C   0  0  0  0  0  0  0  0  0  0  0  0
    2.6486    3.1792    0.0000 C   0  0  0  0  0  0  0  0  0  0  0  0
    2.6486    2.3542    0.0000 C   0  0  0  0  0  0  0  0  0  0  0  0
    3.3631    1.9417    0.0000 O   0  0  0  0  0  0  0  0  0  0  0  0
    3.3631    1.1167    0.0000 C   0  0  0  0  0  0  0  0  0  0  0  0
    3.9465    0.5333    0.0000 C   0  0  0  0  0  0  0  0  0  0  0  0
    3.3631   -0.0500    0.0000 C   0  0  0  0  0  0  0  0  0  0  0  0
    2.7797    0.5333    0.0000 C   0  0  0  0  0  0  0  0  0  0  0  0
    1.9341    1.9417    0.0000 C   0  0  0  0  0  0  0  0  0  0  0  0
    0.5052    1.1167    0.0000 C   0  0  0  0  0  0  0  0  0  0  0  0
   -0.2093    0.7042    0.0000 C   0  0  0  0  0  0  0  0  0  0  0  0
   -0.2093   -0.1208    0.0000 F   0  0  0  0  0  0  0  0  0  0  0  0
  1  2  2  0  0  0  0
  2  3  1  0  0  0  0
  2  4  1  0  0  0  0
  4  5  4  0  0  0  0
  5  6  4  0  0  0  0
  6  7  4  0  0  0  0
  7  8  4  0  0  0  0
  8  9  4  0  0  0  0
  4  9  4  0  0  0  0
  9 10  1  0  0  0  0
 10 11  1  0  0  0  0
 11 12  4  0  0  0  0
 12 13  1  0  0  0  0
 12 14  4  0  0  0  0
 14 15  4  0  0  0  0
 15 16  1  0  0  0  0
 16 17  4  0  0  0  0
 17 18  4  0  0  0  0
 18 19  4  0  0  0  0
 19 20  4  0  0  0  0
 20 21  1  0  0  0  0
 21 22  1  0  0  0  0
 22 23  1  0  0  0  0
 23 24  1  0  0  0  0
 24 25  1  0  0  0  0
 22 25  1  0  0  0  0
 20 26  4  0  0  0  0
 16 26  4  0  0  0  0
 15 27  4  0  0  0  0
 27 28  4  0  0  0  0
 11 28  4  0  0  0  0
 28 29  1  0  0  0  0
M  END
> <IC50(uM)>
0.09

> <Outcome>
1.0

> <BindingDB ID>
51186851; 246903

> <BindingDB MonomerID>
119810

> <BindingDB Ligand Name>
US8691852, 17

> <Curation/DataSource>
ChEMBL; US Patent

> <Article DOI>
10.1007/s00044-011-9837-4; ?

> <PMID>
?

> <Patent Number>
?; US8691852

> <Authors>
n/a; Castro Palomino Laria, JC; Erra Sola, M; Lozoya Toribio, ME; Navarro Romero, E

> <Link to Ligand in BindingDB>
http://www.bindingdb.org/bind/chemsearch/marvin/MolStructure.jsp?monomerid=119810

> <Link to Ligand-Target Pair in BindingDB>
http://www.bindingdb.org/jsp/dbsearch/PrimarySearch_ki.jsp?energyterm=kJ/mole&tag=r21&monomerid=119810&enzyme=Dihydroorotate+dehydrogenase&column=ki&startPg=0&Increment=50&submit=Search

> <PubChem CID>
24986827

> <PubChem SID>
220230604

$$$$

  Mrv2115 07222212352D          

 28 30  0  0  0  0            999 V2000
   -0.7145   -3.7125    0.0000 C   0  0  0  0  0  0  0  0  0  0  0  0
   -0.7145   -2.8875    0.0000 C   0  0  0  0  0  0  0  0  0  0  0  0
   -1.4289   -2.4750    0.0000 C   0  0  0  0  0  0  0  0  0  0  0  0
    0.0000   -2.4750    0.0000 C   0  0  0  0  0  0  0  0  0  0  0  0
    0.0000   -1.6500    0.0000 C   0  0  0  0  0  0  0  0  0  0  0  0
    0.7145   -1.2375    0.0000 C   0  0  0  0  0  0  0  0  0  0  0  0
    0.7145   -0.4125    0.0000 C   0  0  0  0  0  0  0  0  0  0  0  0
    0.0000    0.0000    0.0000 O   0  0  0  0  0  0  0  0  0  0  0  0
    0.0000    0.8250    0.0000 S   0  0  0  0  0  0  0  0  0  0  0  0
    0.8250    0.8250    0.0000 O   0  0  0  0  0  0  0  0  0  0  0  0
   -0.8250    0.8250    0.0000 O   0  0  0  0  0  0  0  0  0  0  0  0
    0.0000    1.6500    0.0000 C   0  0  0  0  0  0  0  0  0  0  0  0
   -0.7145    2.0625    0.0000 C   0  0  0  0  0  0  0  0  0  0  0  0
   -0.7145    2.8875    0.0000 C   0  0  0  0  0  0  0  0  0  0  0  0
    0.0000    3.3000    0.0000 C   0  0  0  0  0  0  0  0  0  0  0  0
    0.0000    4.1250    0.0000 C   0  0  0  0  0  0  0  0  0  0  0  0
    0.7145    2.8875    0.0000 C   0  0  0  0  0  0  0  0  0  0  0  0
    0.7145    2.0625    0.0000 C   0  0  0  0  0  0  0  0  0  0  0  0
    1.4289    0.0000    0.0000 C   0  0  0  0  0  0  0  0  0  0  0  0
    1.4289    0.8250    0.0000 O   0  0  0  0  0  0  0  0  0  0  0  0
    2.1434   -0.4125    0.0000 C   0  0  0  0  0  0  0  0  0  0  0  0
    2.8579    0.0000    0.0000 C   0  0  0  0  0  0  0  0  0  0  0  0
    3.5724   -0.4125    0.0000 C   0  0  0  0  0  0  0  0  0  0  0  0
    3.5724   -1.2375    0.0000 C   0  0  0  0  0  0  0  0  0  0  0  0
    2.8579   -1.6500    0.0000 C   0  0  0  0  0  0  0  0  0  0  0  0
    2.1434   -1.2375    0.0000 C   0  0  0  0  0  0  0  0  0  0  0  0
    1.4289   -1.6500    0.0000 C   0  0  0  0  0  0  0  0  0  0  0  0
    1.4289   -2.4750    0.0000 O   0  0  0  0  0  0  0  0  0  0  0  0
  1  2  1  0  0  0  0
  2  3  1  0  0  0  0
  2  4  2  0  0  0  0
  4  5  1  0  0  0  0
  5  6  1  0  0  0  0
  6  7  2  0  0  0  0
  7  8  1  0  0  0  0
  8  9  1  0  0  0  0
  9 10  2  0  0  0  0
  9 11  2  0  0  0  0
  9 12  1  0  0  0  0
 12 13  4  0  0  0  0
 13 14  4  0  0  0  0
 14 15  4  0  0  0  0
 15 16  1  0  0  0  0
 15 17  4  0  0  0  0
 17 18  4  0  0  0  0
 12 18  4  0  0  0  0
  7 19  1  0  0  0  0
 19 20  2  0  0  0  0
 19 21  1  0  0  0  0
 21 22  4  0  0  0  0
 22 23  4  0  0  0  0
 23 24  4  0  0  0  0
 24 25  4  0  0  0  0
 25 26  4  0  0  0  0
 21 26  4  0  0  0  0
 26 27  1  0  0  0  0
  6 27  1  0  0  0  0
 27 28  2  0  0  0  0
M  END
> <IC50(uM)>
7.9

> <Outcome>
0.0

> <BindingDB ID>
51282830

> <BindingDB MonomerID>
50523216

> <BindingDB Ligand Name>
CHEMBL2023282

> <Curation/DataSource>
ChEMBL

> <Article DOI>
10.1016/j.ejmech.2019.02.018

> <PMID>
30776695

> <Patent Number>
?

> <Authors>
Calil, FA; David, JS; Chiappetta, ERC; Fumagalli, F; Mello, RB; Leite, FHA; Castilho, MS; Emery, FS; Nonato, MC

> <Link to Ligand in BindingDB>
http://www.bindingdb.org/bind/chemsearch/marvin/MolStructure.jsp?monomerid=50523216

> <Link to Ligand-Target Pair in BindingDB>
http://www.bindingdb.org/jsp/dbsearch/PrimarySearch_ki.jsp?energyterm=kJ/mole&tag=r21&monomerid=50523216&enzyme=Dihydroorotate+dehydrogenase&column=ki&startPg=0&Increment=50&submit=Search

> <PubChem CID>
60143791

> <PubChem SID>
440731798

$$$$

  Mrv2115 07222212352D          

 34 36  0  0  0  0            999 V2000
    2.1434   -3.7125    0.0000 C   0  0  0  0  0  0  0  0  0  0  0  0
    2.8579   -4.1250    0.0000 C   0  0  0  0  0  0  0  0  0  0  0  0
    2.8579   -4.9500    0.0000 C   0  0  0  0  0  0  0  0  0  0  0  0
    3.5724   -3.7125    0.0000 C   0  0  0  0  0  0  0  0  0  0  0  0
    4.2868   -4.1250    0.0000 C   0  0  0  0  0  0  0  0  0  0  0  0
    4.2868   -4.9500    0.0000 C   0  0  0  0  0  0  0  0  0  0  0  0
    5.0013   -3.7125    0.0000 O   0  0  0  0  0  0  0  0  0  0  0  0
    5.0013   -2.8875    0.0000 C   0  0  0  0  0  0  0  0  0  0  0  0
    4.2868   -2.4750    0.0000 C   0  0  0  0  0  0  0  0  0  0  0  0
    4.2868   -1.6500    0.0000 C   0  0  0  0  0  0  0  0  0  0  0  0
    3.5724   -1.2375    0.0000 N   0  0  0  0  0  0  0  0  0  0  0  0
    2.8187   -1.5731    0.0000 N   0  0  0  0  0  0  0  0  0  0  0  0
    2.2666   -0.9600    0.0000 C   0  0  0  0  0  0  0  0  0  0  0  0
    1.4462   -1.0462    0.0000 C   0  0  0  0  0  0  0  0  0  0  0  0
    0.9612   -0.3788    0.0000 C   0  0  0  0  0  0  0  0  0  0  0  0
    1.1106   -1.7999    0.0000 C   0  0  0  0  0  0  0  0  0  0  0  0
    2.6791   -0.2455    0.0000 N   0  0  0  0  0  0  0  0  0  0  0  0
    2.3436    0.5082    0.0000 C   0  0  0  0  0  0  0  0  0  0  0  0
    3.4861   -0.4170    0.0000 C   0  0  0  0  0  0  0  0  0  0  0  0
    4.0992    0.1350    0.0000 O   0  0  0  0  0  0  0  0  0  0  0  0
    5.0013   -1.2375    0.0000 C   0  0  0  0  0  0  0  0  0  0  0  0
    5.0013   -0.4125    0.0000 F   0  0  0  0  0  0  0  0  0  0  0  0
    5.7158   -1.6500    0.0000 C   0  0  0  0  0  0  0  0  0  0  0  0
    5.7158   -2.4750    0.0000 C   0  0  0  0  0  0  0  0  0  0  0  0
    6.4302   -2.8875    0.0000 C   0  0  0  0  0  0  0  0  0  0  0  0
    6.4302   -3.7125    0.0000 O   0  0  0  0  0  0  0  0  0  0  0  0
    7.1447   -2.4750    0.0000 N   0  0  0  0  0  0  0  0  0  0  0  0
    7.8592   -2.8875    0.0000 C   0  0  0  0  0  0  0  0  0  0  0  0
    8.5737   -2.4750    0.0000 C   0  0  0  0  0  0  0  0  0  0  0  0
    9.2881   -2.8875    0.0000 C   0  0  0  0  0  0  0  0  0  0  0  0
    9.2881   -3.7125    0.0000 N   0  0  0  0  0  0  0  0  0  0  0  0
   10.0026   -4.1250    0.0000 C   0  0  0  0  0  0  0  0  0  0  0  0
    8.5737   -4.1250    0.0000 C   0  0  0  0  0  0  0  0  0  0  0  0
    7.8592   -3.7125    0.0000 C   0  0  0  0  0  0  0  0  0  0  0  0
  1  2  1  0  0  0  0
  2  3  1  0  0  0  0
  2  4  1  0  0  0  0
  4  5  1  0  0  0  0
  5  6  1  0  0  0  0
  5  7  1  0  0  0  0
  7  8  1  0  0  0  0
  8  9  4  0  0  0  0
  9 10  4  0  0  0  0
 10 11  1  0  0  0  0
 11 12  4  0  0  0  0
 12 13  4  0  0  0  0
 13 14  1  0  0  0  0
 14 15  1  0  0  0  0
 14 16  1  0  0  0  0
 13 17  4  0  0  0  0
 17 18  1  0  0  0  0
 17 19  4  0  0  0  0
 11 19  4  0  0  0  0
 19 20  2  0  0  0  0
 10 21  4  0  0  0  0
 21 22  1  0  0  0  0
 21 23  4  0  0  0  0
 23 24  4  0  0  0  0
  8 24  4  0  0  0  0
 24 25  1  0  0  0  0
 25 26  2  0  0  0  0
 25 27  1  0  0  0  0
 27 28  1  0  0  0  0
 28 29  1  0  0  0  0
 29 30  1  0  0  0  0
 30 31  1  0  0  0  0
 31 32  1  0  0  0  0
 31 33  1  0  0  0  0
 33 34  1  0  0  0  0
 28 34  1  0  0  0  0
M  END
> <IC50(uM)>
19.5

> <Outcome>
0.0

> <BindingDB ID>
972612; 1098766; 1098765; 972611

> <BindingDB MonomerID>
470500

> <BindingDB Ligand Name>
5-fluoro-4-[4-methyl-5-oxo-3-(propan-2-yl)-4,5-dihydro-1H-1,2,4-triazol-1-yl]-2-{[(2S)-4-methyl-pentan-2-yl]oxy}-N-(1-methylpiperidin-4-yl)benzamide::US10815215, Example 152; 5-fluoro-4-[4-methyl-5-oxo-3-(propan-2-yl)-4,5-dihydro-1H-1,2,4-triazol-1-yl]-2-{[(2S)-4-methyl-pentan-2-yl]oxy}-N-(1-methylpiperidin-4-yl)benzamide::US10815215, Example 152::US11130745, Example 152

> <Curation/DataSource>
US Patent

> <Article DOI>
?

> <PMID>
?

> <Patent Number>
US10815215; US11130745

> <Authors>
Gradl, SN; Nguyen, D; Eis, K; Gunther, J; Stellfeld, T; Janzer, A; Christian, S; Muller, T; Sheikh, SE; Zhou, HJ; Zhao, C; Sykes, DB; Ferrara, SJ; Liu, K; Krober, M; Merz, C; Niehues, M; Schafer, M; Zimmermann, K; Nising, CF; Gradl, SN; Nguyen, D; Eis, K; Gunther, J; Stellfeld, T; Janzer, A; Christian, S; Muller, T; Sheikh, SE; Sykes, DB; Ferrara, SJ; Krober, M; Merz, C; Niehues, M; Schafer, M; Zimmermann, K; Nising, CF

> <Link to Ligand in BindingDB>
http://www.bindingdb.org/bind/chemsearch/marvin/MolStructure.jsp?monomerid=470500

> <Link to Ligand-Target Pair in BindingDB>
http://www.bindingdb.org/jsp/dbsearch/PrimarySearch_ki.jsp?energyterm=kJ/mole&tag=r21&monomerid=470500&enzyme=Dihydroorotate+dehydrogenase&column=ki&startPg=0&Increment=50&submit=Search

> <PubChem CID>
134470306

> <PubChem SID>
441609677

$$$$

  Mrv2115 07222212352D          

 24 25  0  0  0  0            999 V2000
   -5.0013   -4.5375    0.0000 C   0  0  0  0  0  0  0  0  0  0  0  0
   -4.2868   -4.9500    0.0000 C   0  0  0  0  0  0  0  0  0  0  0  0
   -3.5724   -4.5375    0.0000 N   0  0  0  0  0  0  0  0  0  0  0  0
   -2.8579   -4.9500    0.0000 C   0  0  0  0  0  0  0  0  0  0  0  0
   -2.8579   -5.7750    0.0000 O   0  0  0  0  0  0  0  0  0  0  0  0
   -2.1434   -4.5375    0.0000 N   0  0  0  0  0  0  0  0  0  0  0  0
   -1.4289   -4.9500    0.0000 C   0  0  0  0  0  0  0  0  0  0  0  0
   -0.7145   -4.5375    0.0000 C   0  0  0  0  0  0  0  0  0  0  0  0
    0.0000   -4.9500    0.0000 C   0  0  0  0  0  0  0  0  0  0  0  0
    0.0000   -5.7750    0.0000 C   0  0  0  0  0  0  0  0  0  0  0  0
    0.7145   -6.1875    0.0000 S   0  0  0  0  0  0  0  0  0  0  0  0
    0.3020   -6.9020    0.0000 O   0  0  0  0  0  0  0  0  0  0  0  0
    1.1270   -5.4730    0.0000 O   0  0  0  0  0  0  0  0  0  0  0  0
    1.4289   -6.6000    0.0000 O   0  0  0  0  0  0  0  0  0  0  0  0
    2.1434   -6.1875    0.0000 C   0  0  0  0  0  0  0  0  0  0  0  0
    2.1434   -5.3625    0.0000 C   0  0  0  0  0  0  0  0  0  0  0  0
    2.8579   -4.9500    0.0000 C   0  0  0  0  0  0  0  0  0  0  0  0
    3.5724   -5.3625    0.0000 C   0  0  0  0  0  0  0  0  0  0  0  0
    3.5724   -6.1875    0.0000 C   0  0  0  0  0  0  0  0  0  0  0  0
    2.8579   -6.6000    0.0000 C   0  0  0  0  0  0  0  0  0  0  0  0
    2.8579   -7.4250    0.0000 C   0  0  0  0  0  0  0  0  0  0  0  0
    2.1434   -7.8375    0.0000 C   0  0  0  0  0  0  0  0  0  0  0  0
   -0.7145   -6.1875    0.0000 C   0  0  0  0  0  0  0  0  0  0  0  0
   -1.4289   -5.7750    0.0000 C   0  0  0  0  0  0  0  0  0  0  0  0
  1  2  1  0  0  0  0
  2  3  1  0  0  0  0
  3  4  1  0  0  0  0
  4  5  2  0  0  0  0
  4  6  1  0  0  0  0
  6  7  1  0  0  0  0
  7  8  4  0  0  0  0
  8  9  4  0  0  0  0
  9 10  4  0  0  0  0
 10 11  1  0  0  0  0
 11 12  2  0  0  0  0
 11 13  2  0  0  0  0
 11 14  1  0  0  0  0
 14 15  1  0  0  0  0
 15 16  4  0  0  0  0
 16 17  4  0  0  0  0
 17 18  4  0  0  0  0
 18 19  4  0  0  0  0
 19 20  4  0  0  0  0
 15 20  4  0  0  0  0
 20 21  1  0  0  0  0
 21 22  1  0  0  0  0
 10 23  4  0  0  0  0
 23 24  4  0  0  0  0
  7 24  4  0  0  0  0
M  END
> <IC50(uM)>
0.072

> <Outcome>
1.0

> <BindingDB ID>
51383905

> <BindingDB MonomerID>
50559136

> <BindingDB Ligand Name>
CHEMBL2165736

> <Curation/DataSource>
ChEMBL

> <Article DOI>
?

> <PMID>
33007554

> <Patent Number>
?

> <Authors>
Bouzriba, C; Larcher, L; Gagn??-Boulet, M; Fortin, S

> <Link to Ligand in BindingDB>
http://www.bindingdb.org/bind/chemsearch/marvin/MolStructure.jsp?monomerid=50559136

> <Link to Ligand-Target Pair in BindingDB>
http://www.bindingdb.org/jsp/dbsearch/PrimarySearch_ki.jsp?energyterm=kJ/mole&tag=r21&monomerid=50559136&enzyme=Dihydroorotate+dehydrogenase&column=ki&startPg=0&Increment=50&submit=Search

> <PubChem CID>
60168106

> <PubChem SID>
461829528

$$$$

  Mrv2115 07222212352D          

 20 22  0  0  0  0            999 V2000
    1.4289   -2.4750    0.0000 O   0  0  0  0  0  0  0  0  0  0  0  0
    1.4289   -1.6500    0.0000 C   0  0  0  0  0  0  0  0  0  0  0  0
    0.7145   -1.2375    0.0000 C   0  0  0  0  0  0  0  0  0  0  0  0
    0.0000   -1.6500    0.0000 O   0  0  0  0  0  0  0  0  0  0  0  0
    0.7145   -0.4125    0.0000 C   0  0  0  0  0  0  0  0  0  0  0  0
    0.0000    0.0000    0.0000 N   0  0  0  0  0  0  0  0  0  0  0  0
    0.0000    0.8250    0.0000 C   0  0  0  0  0  0  0  0  0  0  0  0
   -0.7145    1.2375    0.0000 C   0  0  0  0  0  0  0  0  0  0  0  0
   -0.7145    2.0625    0.0000 C   0  0  0  0  0  0  0  0  0  0  0  0
    0.0000    2.4750    0.0000 C   0  0  0  0  0  0  0  0  0  0  0  0
    0.7145    2.0625    0.0000 C   0  0  0  0  0  0  0  0  0  0  0  0
    0.7145    1.2375    0.0000 C   0  0  0  0  0  0  0  0  0  0  0  0
    1.4289    0.0000    0.0000 C   0  0  0  0  0  0  0  0  0  0  0  0
    1.4289    0.8250    0.0000 O   0  0  0  0  0  0  0  0  0  0  0  0
    2.1434   -0.4125    0.0000 C   0  0  0  0  0  0  0  0  0  0  0  0
    2.8579    0.0000    0.0000 C   0  0  0  0  0  0  0  0  0  0  0  0
    3.5724   -0.4125    0.0000 C   0  0  0  0  0  0  0  0  0  0  0  0
    3.5724   -1.2375    0.0000 C   0  0  0  0  0  0  0  0  0  0  0  0
    2.8579   -1.6500    0.0000 C   0  0  0  0  0  0  0  0  0  0  0  0
    2.1434   -1.2375    0.0000 C   0  0  0  0  0  0  0  0  0  0  0  0
  1  2  2  0  0  0  0
  2  3  1  0  0  0  0
  3  4  1  0  0  0  0
  3  5  2  0  0  0  0
  5  6  1  0  0  0  0
  6  7  1  0  0  0  0
  7  8  4  0  0  0  0
  8  9  4  0  0  0  0
  9 10  4  0  0  0  0
 10 11  4  0  0  0  0
 11 12  4  0  0  0  0
  7 12  4  0  0  0  0
  5 13  1  0  0  0  0
 13 14  2  0  0  0  0
 13 15  1  0  0  0  0
 15 16  4  0  0  0  0
 16 17  4  0  0  0  0
 17 18  4  0  0  0  0
 18 19  4  0  0  0  0
 19 20  4  0  0  0  0
 15 20  4  0  0  0  0
  2 20  1  0  0  0  0
M  END
> <IC50(uM)>
2.6

> <Outcome>
0.0

> <BindingDB ID>
51282848

> <BindingDB MonomerID>
50523218

> <BindingDB Ligand Name>
CHEMBL2408377

> <Curation/DataSource>
ChEMBL

> <Article DOI>
10.1016/j.ejmech.2019.02.018

> <PMID>
30776695

> <Patent Number>
?

> <Authors>
Calil, FA; David, JS; Chiappetta, ERC; Fumagalli, F; Mello, RB; Leite, FHA; Castilho, MS; Emery, FS; Nonato, MC

> <Link to Ligand in BindingDB>
http://www.bindingdb.org/bind/chemsearch/marvin/MolStructure.jsp?monomerid=50523218

> <Link to Ligand-Target Pair in BindingDB>
http://www.bindingdb.org/jsp/dbsearch/PrimarySearch_ki.jsp?energyterm=kJ/mole&tag=r21&monomerid=50523218&enzyme=Dihydroorotate+dehydrogenase&column=ki&startPg=0&Increment=50&submit=Search

> <PubChem CID>
73291708

> <PubChem SID>
440731800

$$$$

  Mrv2115 07222212352D          

 27 30  0  0  0  0            999 V2000
   -3.0686    0.0950    0.0000 C   0  0  0  0  0  0  0  0  0  0  0  0
   -2.8971    0.9019    0.0000 C   0  0  0  0  0  0  0  0  0  0  0  0
   -3.4491    1.5150    0.0000 N   0  0  0  0  0  0  0  0  0  0  0  0
   -3.0366    2.2295    0.0000 N   0  0  0  0  0  0  0  0  0  0  0  0
   -3.3722    2.9832    0.0000 C   0  0  0  0  0  0  0  0  0  0  0  0
   -2.2296    2.0580    0.0000 C   0  0  0  0  0  0  0  0  0  0  0  0
   -1.6166    2.6100    0.0000 C   0  0  0  0  0  0  0  0  0  0  0  0
   -2.1434    1.2375    0.0000 C   0  0  0  0  0  0  0  0  0  0  0  0
   -1.4289    0.8250    0.0000 C   0  0  0  0  0  0  0  0  0  0  0  0
   -0.7145    1.2375    0.0000 C   0  0  0  0  0  0  0  0  0  0  0  0
    0.0000    0.8250    0.0000 C   0  0  0  0  0  0  0  0  0  0  0  0
    0.0000   -0.0000    0.0000 C   0  0  0  0  0  0  0  0  0  0  0  0
    0.7145   -0.4125    0.0000 C   0  0  0  0  0  0  0  0  0  0  0  0
    1.4289    0.0000    0.0000 N   0  0  0  0  0  0  0  0  0  0  0  0
    2.1434   -0.4125    0.0000 C   0  0  0  0  0  0  0  0  0  0  0  0
    2.8579    0.0000    0.0000 C   0  0  0  0  0  0  0  0  0  0  0  0
    3.5724   -0.4125    0.0000 C   0  0  0  0  0  0  0  0  0  0  0  0
    3.5724   -1.2375    0.0000 N   0  0  0  0  0  0  0  0  0  0  0  0
    2.8579   -1.6500    0.0000 C   0  0  0  0  0  0  0  0  0  0  0  0
    2.1434   -1.2375    0.0000 C   0  0  0  0  0  0  0  0  0  0  0  0
    1.4289   -1.6500    0.0000 C   0  0  0  0  0  0  0  0  0  0  0  0
    1.4289   -2.4750    0.0000 O   0  0  0  0  0  0  0  0  0  0  0  0
    0.7145   -1.2375    0.0000 C   0  0  0  0  0  0  0  0  0  0  0  0
    0.0000   -1.6500    0.0000 C   0  0  0  0  0  0  0  0  0  0  0  0
   -0.7145   -2.0625    0.0000 N   0  0  0  0  0  0  0  0  0  0  0  0
   -0.7145   -0.4125    0.0000 C   0  0  0  0  0  0  0  0  0  0  0  0
   -1.4289   -0.0000    0.0000 C   0  0  0  0  0  0  0  0  0  0  0  0
  1  2  1  0  0  0  0
  2  3  4  0  0  0  0
  3  4  4  0  0  0  0
  4  5  1  0  0  0  0
  4  6  4  0  0  0  0
  6  7  1  0  0  0  0
  6  8  4  0  0  0  0
  2  8  4  0  0  0  0
  8  9  1  0  0  0  0
  9 10  4  0  0  0  0
 10 11  4  0  0  0  0
 11 12  4  0  0  0  0
 12 13  1  0  0  0  0
 13 14  4  0  0  0  0
 14 15  4  0  0  0  0
 15 16  4  0  0  0  0
 16 17  4  0  0  0  0
 17 18  4  0  0  0  0
 18 19  4  0  0  0  0
 19 20  4  0  0  0  0
 15 20  4  0  0  0  0
 20 21  4  0  0  0  0
 21 22  1  0  0  0  0
 21 23  4  0  0  0  0
 13 23  4  0  0  0  0
 23 24  1  0  0  0  0
 24 25  3  0  0  0  0
 12 26  4  0  0  0  0
 26 27  4  0  0  0  0
  9 27  4  0  0  0  0
M  END
> <IC50(uM)>
1.1

> <Outcome>
0.0

> <BindingDB ID>
50720836

> <BindingDB MonomerID>
50365500

> <BindingDB Ligand Name>
CHEMBL1957462

> <Curation/DataSource>
ChEMBL

> <Article DOI>
10.1016/j.bmcl.2012.01.046

> <PMID>
22321214

> <Patent Number>
?

> <Authors>
Bauer, U; Giordanetto, F; Bauer, M; O'Mahony, G; Johansson, KE; Knecht, W; Hartleib-Geschwindner, J; Carlsson, ET; Enroth, C

> <Link to Ligand in BindingDB>
http://www.bindingdb.org/bind/chemsearch/marvin/MolStructure.jsp?monomerid=50365500

> <Link to Ligand-Target Pair in BindingDB>
http://www.bindingdb.org/jsp/dbsearch/PrimarySearch_ki.jsp?energyterm=kJ/mole&tag=r21&monomerid=50365500&enzyme=Dihydroorotate+dehydrogenase&column=ki&startPg=0&Increment=50&submit=Search

> <PubChem CID>
57400035

> <PubChem SID>
136969562

$$$$

  Mrv2115 07222212352D          

 34 36  0  0  0  0            999 V2000
    0.7145   -3.7125    0.0000 C   0  0  0  0  0  0  0  0  0  0  0  0
    1.4289   -4.1250    0.0000 C   0  0  0  0  0  0  0  0  0  0  0  0
    1.4289   -4.9500    0.0000 C   0  0  0  0  0  0  0  0  0  0  0  0
    0.7615   -5.4349    0.0000 N   0  0  0  0  0  0  0  0  0  0  0  0
    1.0164   -6.2195    0.0000 N   0  0  0  0  0  0  0  0  0  0  0  0
    0.5315   -6.8870    0.0000 C   0  0  0  0  0  0  0  0  0  0  0  0
    0.8671   -7.6407    0.0000 C   0  0  0  0  0  0  0  0  0  0  0  0
    0.3822   -8.3081    0.0000 C   0  0  0  0  0  0  0  0  0  0  0  0
    0.7177   -9.0618    0.0000 O   0  0  0  0  0  0  0  0  0  0  0  0
    1.5382   -9.1480    0.0000 C   0  0  0  0  0  0  0  0  0  0  0  0
    2.0231   -8.4806    0.0000 C   0  0  0  0  0  0  0  0  0  0  0  0
    1.8738   -9.9017    0.0000 C   0  0  0  0  0  0  0  0  0  0  0  0
    1.1201  -10.2372    0.0000 F   0  0  0  0  0  0  0  0  0  0  0  0
    2.6274   -9.5661    0.0000 F   0  0  0  0  0  0  0  0  0  0  0  0
    2.2093  -10.6554    0.0000 F   0  0  0  0  0  0  0  0  0  0  0  0
   -0.4383   -8.2219    0.0000 C   0  0  0  0  0  0  0  0  0  0  0  0
   -0.9232   -8.8893    0.0000 C   0  0  0  0  0  0  0  0  0  0  0  0
   -1.7437   -8.8031    0.0000 O   0  0  0  0  0  0  0  0  0  0  0  0
   -0.5877   -9.6430    0.0000 N   0  0  0  0  0  0  0  0  0  0  0  0
   -1.0726  -10.3104    0.0000 C   0  0  0  0  0  0  0  0  0  0  0  0
   -0.7371  -11.0641    0.0000 C   0  0  0  0  0  0  0  0  0  0  0  0
    0.0834  -11.1503    0.0000 F   0  0  0  0  0  0  0  0  0  0  0  0
   -1.2220  -11.7315    0.0000 C   0  0  0  0  0  0  0  0  0  0  0  0
   -2.0425  -11.6453    0.0000 C   0  0  0  0  0  0  0  0  0  0  0  0
   -2.3780  -10.8916    0.0000 C   0  0  0  0  0  0  0  0  0  0  0  0
   -1.8931  -10.2242    0.0000 C   0  0  0  0  0  0  0  0  0  0  0  0
   -2.2287   -9.4705    0.0000 F   0  0  0  0  0  0  0  0  0  0  0  0
   -0.7739   -7.4682    0.0000 C   0  0  0  0  0  0  0  0  0  0  0  0
   -0.2890   -6.8007    0.0000 C   0  0  0  0  0  0  0  0  0  0  0  0
   -0.6245   -6.0471    0.0000 F   0  0  0  0  0  0  0  0  0  0  0  0
    1.8414   -6.2195    0.0000 C   0  0  0  0  0  0  0  0  0  0  0  0
    2.3264   -6.8870    0.0000 O   0  0  0  0  0  0  0  0  0  0  0  0
    2.0964   -5.4349    0.0000 N   0  0  0  0  0  0  0  0  0  0  0  0
    2.8810   -5.1800    0.0000 C   0  0  0  0  0  0  0  0  0  0  0  0
  1  2  1  0  0  0  0
  2  3  1  0  0  0  0
  3  4  4  0  0  0  0
  4  5  4  0  0  0  0
  5  6  1  0  0  0  0
  6  7  4  0  0  0  0
  7  8  4  0  0  0  0
  8  9  1  0  0  0  0
  9 10  1  0  0  0  0
 10 11  1  0  0  0  0
 10 12  1  0  0  0  0
 12 13  1  0  0  0  0
 12 14  1  0  0  0  0
 12 15  1  0  0  0  0
  8 16  4  0  0  0  0
 16 17  1  0  0  0  0
 17 18  2  0  0  0  0
 17 19  1  0  0  0  0
 19 20  1  0  0  0  0
 20 21  4  0  0  0  0
 21 22  1  0  0  0  0
 21 23  4  0  0  0  0
 23 24  4  0  0  0  0
 24 25  4  0  0  0  0
 25 26  4  0  0  0  0
 20 26  4  0  0  0  0
 26 27  1  0  0  0  0
 16 28  4  0  0  0  0
 28 29  4  0  0  0  0
  6 29  4  0  0  0  0
 29 30  1  0  0  0  0
  5 31  4  0  0  0  0
 31 32  2  0  0  0  0
 31 33  4  0  0  0  0
  3 33  4  0  0  0  0
 33 34  1  0  0  0  0
M  END
> <IC50(uM)>
0.0143

> <Outcome>
1.0

> <BindingDB ID>
1098706; 972552

> <BindingDB MonomerID>
470426

> <BindingDB Ligand Name>
N-(2,6-difluorophenyl)-4-(3-ethyl-4-methyl-5-oxo-4,5-dihydro-1H-1,2,4-triazol-1-yl)-5-fluoro-2-{[(2S)-1,1,1-trifluoropropan-2-yl]oxy}benzamide::US10815215, Example 94::US11130745, Example 94; N-(2,6-difluorophenyl)-4-(3-ethyl-4-methyl-5-oxo-4,5-dihydro-1H-1,2,4-triazol-1-yl)-5-fluoro-2-{[(2S)-1,1,1-trifluoropropan-2-yl]oxy}benzamide::US10815215, Example 94

> <Curation/DataSource>
US Patent

> <Article DOI>
?

> <PMID>
?

> <Patent Number>
US11130745; US10815215

> <Authors>
Gradl, SN; Nguyen, D; Eis, K; Gunther, J; Stellfeld, T; Janzer, A; Christian, S; Muller, T; Sheikh, SE; Sykes, DB; Ferrara, SJ; Krober, M; Merz, C; Niehues, M; Schafer, M; Zimmermann, K; Nising, CF; Gradl, SN; Nguyen, D; Eis, K; Gunther, J; Stellfeld, T; Janzer, A; Christian, S; Muller, T; Sheikh, SE; Zhou, HJ; Zhao, C; Sykes, DB; Ferrara, SJ; Liu, K; Krober, M; Merz, C; Niehues, M; Schafer, M; Zimmermann, K; Nising, CF

> <Link to Ligand in BindingDB>
http://www.bindingdb.org/bind/chemsearch/marvin/MolStructure.jsp?monomerid=470426

> <Link to Ligand-Target Pair in BindingDB>
http://www.bindingdb.org/jsp/dbsearch/PrimarySearch_ki.jsp?energyterm=kJ/mole&tag=r21&monomerid=470426&enzyme=Dihydroorotate+dehydrogenase&column=ki&startPg=0&Increment=50&submit=Search

> <PubChem CID>
134470080

> <PubChem SID>
441609603

$$$$

  Mrv2115 07222212352D          

 25 28  0  0  0  0            999 V2000
    2.1434   -2.8875    0.0000 O   0  0  0  0  0  0  0  0  0  0  0  0
    1.4289   -2.4750    0.0000 C   0  0  0  0  0  0  0  0  0  0  0  0
    0.7145   -2.8875    0.0000 O   0  0  0  0  0  0  0  0  0  0  0  0
    1.4289   -1.6500    0.0000 C   0  0  0  0  0  0  0  0  0  0  0  0
    0.7145   -1.2375    0.0000 C   0  0  0  0  0  0  0  0  0  0  0  0
    0.7145   -0.4125    0.0000 C   0  0  0  0  0  0  0  0  0  0  0  0
    0.0000    0.0000    0.0000 C   0  0  0  0  0  0  0  0  0  0  0  0
   -0.7145   -0.4125    0.0000 C   0  0  0  0  0  0  0  0  0  0  0  0
   -1.4289    0.0000    0.0000 C   0  0  0  0  0  0  0  0  0  0  0  0
   -1.4289    0.8250    0.0000 C   0  0  0  0  0  0  0  0  0  0  0  0
   -2.1434    1.2375    0.0000 C   0  0  0  0  0  0  0  0  0  0  0  0
   -2.8579    0.8250    0.0000 C   0  0  0  0  0  0  0  0  0  0  0  0
   -3.5724    1.2375    0.0000 C   0  0  0  0  0  0  0  0  0  0  0  0
   -3.5724    2.0625    0.0000 C   0  0  0  0  0  0  0  0  0  0  0  0
   -2.8579    2.4750    0.0000 N   0  0  0  0  0  0  0  0  0  0  0  0
   -2.1434    2.0625    0.0000 N   0  0  0  0  0  0  0  0  0  0  0  0
   -0.7145    1.2375    0.0000 C   0  0  0  0  0  0  0  0  0  0  0  0
    0.0000    0.8250    0.0000 C   0  0  0  0  0  0  0  0  0  0  0  0
    1.4289    0.0000    0.0000 N   0  0  0  0  0  0  0  0  0  0  0  0
    2.1434   -0.4125    0.0000 C   0  0  0  0  0  0  0  0  0  0  0  0
    2.8579    0.0000    0.0000 C   0  0  0  0  0  0  0  0  0  0  0  0
    3.5724   -0.4125    0.0000 C   0  0  0  0  0  0  0  0  0  0  0  0
    3.5724   -1.2375    0.0000 C   0  0  0  0  0  0  0  0  0  0  0  0
    2.8579   -1.6500    0.0000 C   0  0  0  0  0  0  0  0  0  0  0  0
    2.1434   -1.2375    0.0000 C   0  0  0  0  0  0  0  0  0  0  0  0
  1  2  2  0  0  0  0
  2  3  1  0  0  0  0
  2  4  1  0  0  0  0
  4  5  4  0  0  0  0
  5  6  4  0  0  0  0
  6  7  1  0  0  0  0
  7  8  4  0  0  0  0
  8  9  4  0  0  0  0
  9 10  4  0  0  0  0
 10 11  1  0  0  0  0
 11 12  4  0  0  0  0
 12 13  4  0  0  0  0
 13 14  4  0  0  0  0
 14 15  4  0  0  0  0
 15 16  4  0  0  0  0
 11 16  4  0  0  0  0
 10 17  4  0  0  0  0
 17 18  4  0  0  0  0
  7 18  4  0  0  0  0
  6 19  4  0  0  0  0
 19 20  4  0  0  0  0
 20 21  4  0  0  0  0
 21 22  4  0  0  0  0
 22 23  4  0  0  0  0
 23 24  4  0  0  0  0
 24 25  4  0  0  0  0
  4 25  4  0  0  0  0
 20 25  4  0  0  0  0
M  END
> <IC50(uM)>
8.21

> <Outcome>
0.0

> <BindingDB ID>
51126206

> <BindingDB MonomerID>
50461892

> <BindingDB Ligand Name>
CHEMBL4227258

> <Curation/DataSource>
ChEMBL

> <Article DOI>
10.1021/acs.jmedchem.7b01862

> <PMID>
29727569

> <Patent Number>
?

> <Authors>
Madak, JT; Cuthbertson, CR; Miyata, Y; Tamura, S; Petrunak, EM; Stuckey, JA; Han, Y; He, M; Sun, D; Showalter, HD; Neamati, N

> <Link to Ligand in BindingDB>
http://www.bindingdb.org/bind/chemsearch/marvin/MolStructure.jsp?monomerid=50461892

> <Link to Ligand-Target Pair in BindingDB>
http://www.bindingdb.org/jsp/dbsearch/PrimarySearch_ki.jsp?energyterm=kJ/mole&tag=r21&monomerid=50461892&enzyme=Dihydroorotate+dehydrogenase&column=ki&startPg=0&Increment=50&submit=Search

> <PubChem CID>
145970897

> <PubChem SID>
433929157

$$$$

  Mrv2115 07222212352D          

 29 31  0  0  0  0            999 V2000
   -3.8871   -5.0906    0.0000 C   0  0  0  0  0  0  0  0  0  0  0  0
   -3.1727   -4.6781    0.0000 C   0  0  0  0  0  0  0  0  0  0  0  0
   -2.4582   -5.0906    0.0000 C   0  0  0  0  0  0  0  0  0  0  0  0
   -2.4582   -5.9156    0.0000 C   0  0  0  0  0  0  0  0  0  0  0  0
   -1.7437   -4.6781    0.0000 O   0  0  0  0  0  0  0  0  0  0  0  0
   -1.0293   -5.0906    0.0000 C   0  0  0  0  0  0  0  0  0  0  0  0
   -1.0293   -5.9156    0.0000 O   0  0  0  0  0  0  0  0  0  0  0  0
   -0.3148   -4.6781    0.0000 C   0  0  0  0  0  0  0  0  0  0  0  0
   -0.3148   -3.8531    0.0000 C   0  0  0  0  0  0  0  0  0  0  0  0
    0.3997   -3.4406    0.0000 C   0  0  0  0  0  0  0  0  0  0  0  0
    1.1142   -3.8531    0.0000 C   0  0  0  0  0  0  0  0  0  0  0  0
    1.1142   -4.6781    0.0000 C   0  0  0  0  0  0  0  0  0  0  0  0
    0.3997   -5.0906    0.0000 C   0  0  0  0  0  0  0  0  0  0  0  0
    0.3997   -5.9156    0.0000 C   0  0  0  0  0  0  0  0  0  0  0  0
   -0.3148   -6.3281    0.0000 N   0  0  0  0  0  0  0  0  0  0  0  0
   -0.3148   -7.1531    0.0000 N   0  0  0  0  0  0  0  0  0  0  0  0
   -1.0293   -7.5656    0.0000 C   0  0  0  0  0  0  0  0  0  0  0  0
    0.3997   -7.5656    0.0000 C   0  0  0  0  0  0  0  0  0  0  0  0
    1.1534   -7.2300    0.0000 N   0  0  0  0  0  0  0  0  0  0  0  0
    1.7054   -7.8431    0.0000 C   0  0  0  0  0  0  0  0  0  0  0  0
    2.5259   -7.7569    0.0000 C   0  0  0  0  0  0  0  0  0  0  0  0
    2.8614   -7.0032    0.0000 C   0  0  0  0  0  0  0  0  0  0  0  0
    3.6819   -6.9170    0.0000 C   0  0  0  0  0  0  0  0  0  0  0  0
    4.1668   -7.5844    0.0000 C   0  0  0  0  0  0  0  0  0  0  0  0
    3.8313   -8.3381    0.0000 C   0  0  0  0  0  0  0  0  0  0  0  0
    3.0108   -8.4243    0.0000 C   0  0  0  0  0  0  0  0  0  0  0  0
    2.6752   -9.1780    0.0000 Cl  0  0  0  0  0  0  0  0  0  0  0  0
    1.2929   -8.5576    0.0000 C   0  0  0  0  0  0  0  0  0  0  0  0
    0.4859   -8.3860    0.0000 S   0  0  0  0  0  0  0  0  0  0  0  0
  1  2  1  0  0  0  0
  2  3  1  0  0  0  0
  3  4  1  0  0  0  0
  3  5  1  0  0  0  0
  5  6  1  0  0  0  0
  6  7  2  0  0  0  0
  6  8  1  0  0  0  0
  8  9  4  0  0  0  0
  9 10  4  0  0  0  0
 10 11  4  0  0  0  0
 11 12  4  0  0  0  0
 12 13  4  0  0  0  0
  8 13  4  0  0  0  0
 13 14  1  0  0  0  0
 14 15  2  0  0  0  0
 15 16  1  0  0  0  0
 16 17  1  0  0  0  0
 16 18  1  0  0  0  0
 18 19  4  0  0  0  0
 19 20  4  0  0  0  0
 20 21  1  0  0  0  0
 21 22  4  0  0  0  0
 22 23  4  0  0  0  0
 23 24  4  0  0  0  0
 24 25  4  0  0  0  0
 25 26  4  0  0  0  0
 21 26  4  0  0  0  0
 26 27  1  0  0  0  0
 20 28  4  0  0  0  0
 28 29  4  0  0  0  0
 18 29  4  0  0  0  0
M  END
> <IC50(uM)>
50.0

> <Outcome>
0.0

> <BindingDB ID>
1001152

> <BindingDB MonomerID>
482838

> <BindingDB Ligand Name>
US10919869, No.  B5

> <Curation/DataSource>
US Patent

> <Article DOI>
?

> <PMID>
?

> <Patent Number>
US10919869

> <Authors>
Li, H; Xu, Y; Wang, R; Zhao, Z; Song, W; Xu, L

> <Link to Ligand in BindingDB>
http://www.bindingdb.org/bind/chemsearch/marvin/MolStructure.jsp?monomerid=482838

> <Link to Ligand-Target Pair in BindingDB>
http://www.bindingdb.org/jsp/dbsearch/PrimarySearch_ki.jsp?energyterm=kJ/mole&tag=r21&monomerid=482838&enzyme=Dihydroorotate+dehydrogenase&column=ki&startPg=0&Increment=50&submit=Search

> <PubChem CID>
132157957

> <PubChem SID>
443551978

$$$$

  Mrv2115 07222212352D          

 24 24  0  0  0  0            999 V2000
    1.4289   -4.1250    0.0000 C   0  0  0  0  0  0  0  0  0  0  0  0
    2.1434   -3.7125    0.0000 C   0  0  0  0  0  0  0  0  0  0  0  0
    2.8579   -4.1250    0.0000 C   0  0  0  0  0  0  0  0  0  0  0  0
    2.8579   -4.9500    0.0000 O   0  0  0  0  0  0  0  0  0  0  0  0
    3.5724   -3.7125    0.0000 C   0  0  0  0  0  0  0  0  0  0  0  0
    3.5724   -2.8875    0.0000 C   0  0  0  0  0  0  0  0  0  0  0  0
    3.5724   -2.0625    0.0000 N   0  0  0  0  0  0  0  0  0  0  0  0
    4.2868   -4.1250    0.0000 C   0  0  0  0  0  0  0  0  0  0  0  0
    4.2868   -4.9500    0.0000 O   0  0  0  0  0  0  0  0  0  0  0  0
    5.0013   -3.7125    0.0000 N   0  0  0  0  0  0  0  0  0  0  0  0
    5.7158   -4.1250    0.0000 C   0  0  0  0  0  0  0  0  0  0  0  0
    6.4302   -3.7125    0.0000 C   0  0  0  0  0  0  0  0  0  0  0  0
    7.1447   -4.1250    0.0000 C   0  0  0  0  0  0  0  0  0  0  0  0
    7.1447   -4.9500    0.0000 C   0  0  0  0  0  0  0  0  0  0  0  0
    7.8592   -5.3625    0.0000 O   0  0  0  0  0  0  0  0  0  0  0  0
    8.5737   -4.9500    0.0000 S   0  0  0  0  0  0  0  0  0  0  0  0
    8.9862   -5.6645    0.0000 O   0  0  0  0  0  0  0  0  0  0  0  0
    8.1612   -4.2355    0.0000 O   0  0  0  0  0  0  0  0  0  0  0  0
    9.2881   -4.5375    0.0000 C   0  0  0  0  0  0  0  0  0  0  0  0
   10.0026   -4.1250    0.0000 F   0  0  0  0  0  0  0  0  0  0  0  0
    9.7006   -5.2520    0.0000 F   0  0  0  0  0  0  0  0  0  0  0  0
    8.8756   -3.8230    0.0000 F   0  0  0  0  0  0  0  0  0  0  0  0
    6.4302   -5.3625    0.0000 C   0  0  0  0  0  0  0  0  0  0  0  0
    5.7158   -4.9500    0.0000 C   0  0  0  0  0  0  0  0  0  0  0  0
  1  2  1  0  0  0  0
  2  3  1  0  0  0  0
  3  4  2  0  0  0  0
  3  5  1  0  0  0  0
  5  6  1  0  0  0  0
  6  7  3  0  0  0  0
  5  8  1  0  0  0  0
  8  9  2  0  0  0  0
  8 10  1  0  0  0  0
 10 11  1  0  0  0  0
 11 12  4  0  0  0  0
 12 13  4  0  0  0  0
 13 14  4  0  0  0  0
 14 15  1  0  0  0  0
 15 16  1  0  0  0  0
 16 17  2  0  0  0  0
 16 18  2  0  0  0  0
 16 19  1  0  0  0  0
 19 20  1  0  0  0  0
 19 21  1  0  0  0  0
 19 22  1  0  0  0  0
 14 23  4  0  0  0  0
 23 24  4  0  0  0  0
 11 24  4  0  0  0  0
M  END
> <IC50(uM)>
0.15

> <Outcome>
1.0

> <BindingDB ID>
50707367

> <BindingDB MonomerID>
50359688

> <BindingDB Ligand Name>
CHEMBL1929432

> <Curation/DataSource>
ChEMBL

> <Article DOI>
10.1016/j.bmcl.2011.10.052

> <PMID>
22078215

> <Patent Number>
?

> <Authors>
Erra, M; Moreno, I; Sanahuja, J; Andres, M; Reinoso, RF; Lozoya, E; Pizcueta, P; Godessart, N; Castro-Palomino, JC

> <Link to Ligand in BindingDB>
http://www.bindingdb.org/bind/chemsearch/marvin/MolStructure.jsp?monomerid=50359688

> <Link to Ligand-Target Pair in BindingDB>
http://www.bindingdb.org/jsp/dbsearch/PrimarySearch_ki.jsp?energyterm=kJ/mole&tag=r21&monomerid=50359688&enzyme=Dihydroorotate+dehydrogenase&column=ki&startPg=0&Increment=50&submit=Search

> <PubChem CID>
91930436

> <PubChem SID>
136963712

$$$$

  Mrv2115 07222212352D          

 26 28  0  0  0  0            999 V2000
   -2.1434   -0.4125    0.0000 C   0  0  0  0  0  0  0  0  0  0  0  0
   -2.1434   -1.2375    0.0000 C   0  0  0  0  0  0  0  0  0  0  0  0
   -2.8579   -1.6500    0.0000 O   0  0  0  0  0  0  0  0  0  0  0  0
   -2.8579   -2.4750    0.0000 C   0  0  0  0  0  0  0  0  0  0  0  0
   -2.1434   -2.8875    0.0000 C   0  0  0  0  0  0  0  0  0  0  0  0
   -2.1434   -3.7125    0.0000 C   0  0  0  0  0  0  0  0  0  0  0  0
   -2.8579   -4.1250    0.0000 C   0  0  0  0  0  0  0  0  0  0  0  0
   -3.5724   -3.7125    0.0000 C   0  0  0  0  0  0  0  0  0  0  0  0
   -4.2868   -4.1250    0.0000 C   0  0  0  0  0  0  0  0  0  0  0  0
   -5.0013   -3.7125    0.0000 C   0  0  0  0  0  0  0  0  0  0  0  0
   -5.7158   -4.1250    0.0000 C   0  0  0  0  0  0  0  0  0  0  0  0
   -5.7158   -4.9500    0.0000 C   0  0  0  0  0  0  0  0  0  0  0  0
   -6.4302   -5.3625    0.0000 N   0  0  0  0  0  0  0  0  0  0  0  0
   -6.4302   -6.1875    0.0000 C   0  0  0  0  0  0  0  0  0  0  0  0
   -5.7158   -6.6000    0.0000 C   0  0  0  0  0  0  0  0  0  0  0  0
   -5.7158   -7.4250    0.0000 N   0  0  0  0  0  0  0  0  0  0  0  0
   -6.4302   -7.8375    0.0000 C   0  0  0  0  0  0  0  0  0  0  0  0
   -7.1447   -7.4250    0.0000 C   0  0  0  0  0  0  0  0  0  0  0  0
   -7.1447   -6.6000    0.0000 C   0  0  0  0  0  0  0  0  0  0  0  0
   -7.8592   -6.1875    0.0000 C   0  0  0  0  0  0  0  0  0  0  0  0
   -7.8592   -5.3625    0.0000 O   0  0  0  0  0  0  0  0  0  0  0  0
   -8.5737   -6.6000    0.0000 O   0  0  0  0  0  0  0  0  0  0  0  0
   -5.0013   -5.3625    0.0000 C   0  0  0  0  0  0  0  0  0  0  0  0
   -5.0013   -6.1875    0.0000 F   0  0  0  0  0  0  0  0  0  0  0  0
   -4.2868   -4.9500    0.0000 C   0  0  0  0  0  0  0  0  0  0  0  0
   -3.5724   -2.8875    0.0000 C   0  0  0  0  0  0  0  0  0  0  0  0
  1  2  1  0  0  0  0
  2  3  1  0  0  0  0
  3  4  1  0  0  0  0
  4  5  4  0  0  0  0
  5  6  4  0  0  0  0
  6  7  4  0  0  0  0
  7  8  4  0  0  0  0
  8  9  1  0  0  0  0
  9 10  4  0  0  0  0
 10 11  4  0  0  0  0
 11 12  4  0  0  0  0
 12 13  1  0  0  0  0
 13 14  1  0  0  0  0
 14 15  4  0  0  0  0
 15 16  4  0  0  0  0
 16 17  4  0  0  0  0
 17 18  4  0  0  0  0
 18 19  4  0  0  0  0
 14 19  4  0  0  0  0
 19 20  1  0  0  0  0
 20 21  2  0  0  0  0
 20 22  1  0  0  0  0
 12 23  4  0  0  0  0
 23 24  1  0  0  0  0
 23 25  4  0  0  0  0
  9 25  4  0  0  0  0
  8 26  4  0  0  0  0
  4 26  4  0  0  0  0
M  END
> <IC50(uM)>
0.019

> <Outcome>
1.0

> <BindingDB ID>
51186846

> <BindingDB MonomerID>
50487968

> <BindingDB Ligand Name>
CHEMBL2263633

> <Curation/DataSource>
ChEMBL

> <Article DOI>
10.1007/s00044-011-9837-4

> <PMID>
?

> <Patent Number>
?

> <Authors>
n/a

> <Link to Ligand in BindingDB>
http://www.bindingdb.org/bind/chemsearch/marvin/MolStructure.jsp?monomerid=50487968

> <Link to Ligand-Target Pair in BindingDB>
http://www.bindingdb.org/jsp/dbsearch/PrimarySearch_ki.jsp?energyterm=kJ/mole&tag=r21&monomerid=50487968&enzyme=Dihydroorotate+dehydrogenase&column=ki&startPg=0&Increment=50&submit=Search

> <PubChem CID>
24987183

> <PubChem SID>
433955233

$$$$

  Mrv2115 07222212352D          

 37 41  0  0  0  0            999 V2000
   -8.0534   -2.1269    0.0000 C   0  0  0  0  0  0  0  0  0  0  0  0
   -7.6409   -1.4124    0.0000 O   0  0  0  0  0  0  0  0  0  0  0  0
   -6.8159   -1.4124    0.0000 C   0  0  0  0  0  0  0  0  0  0  0  0
   -6.4034   -0.6979    0.0000 C   0  0  0  0  0  0  0  0  0  0  0  0
   -5.5784   -0.6979    0.0000 C   0  0  0  0  0  0  0  0  0  0  0  0
   -5.1659   -1.4124    0.0000 C   0  0  0  0  0  0  0  0  0  0  0  0
   -4.3409   -1.4124    0.0000 N   0  0  0  0  0  0  0  0  0  0  0  0
   -3.9284   -0.6979    0.0000 C   0  0  0  0  0  0  0  0  0  0  0  0
   -4.3409    0.0165    0.0000 O   0  0  0  0  0  0  0  0  0  0  0  0
   -3.1034   -0.6979    0.0000 C   0  0  0  0  0  0  0  0  0  0  0  0
   -2.6909    0.0165    0.0000 C   0  0  0  0  0  0  0  0  0  0  0  0
   -1.8659    0.0165    0.0000 C   0  0  0  0  0  0  0  0  0  0  0  0
   -1.4534    0.7310    0.0000 F   0  0  0  0  0  0  0  0  0  0  0  0
   -1.4534   -0.6979    0.0000 C   0  0  0  0  0  0  0  0  0  0  0  0
   -0.6284   -0.6979    0.0000 N   0  0  0  0  0  0  0  0  0  0  0  0
   -0.1435   -1.3654    0.0000 N   0  0  0  0  0  0  0  0  0  0  0  0
    0.6411   -1.1104    0.0000 C   0  0  0  0  0  0  0  0  0  0  0  0
    0.6411   -0.2854    0.0000 N   0  0  0  0  0  0  0  0  0  0  0  0
   -0.1435   -0.0305    0.0000 C   0  0  0  0  0  0  0  0  0  0  0  0
   -0.3984    0.7541    0.0000 O   0  0  0  0  0  0  0  0  0  0  0  0
    1.3556    0.1271    0.0000 C   0  0  0  0  0  0  0  0  0  0  0  0
    2.0701   -0.2854    0.0000 C   0  0  0  0  0  0  0  0  0  0  0  0
    2.0701   -1.1104    0.0000 C   0  0  0  0  0  0  0  0  0  0  0  0
    1.3556   -1.5229    0.0000 C   0  0  0  0  0  0  0  0  0  0  0  0
   -1.8659   -1.4124    0.0000 C   0  0  0  0  0  0  0  0  0  0  0  0
   -2.6909   -1.4124    0.0000 C   0  0  0  0  0  0  0  0  0  0  0  0
   -3.1034   -2.1269    0.0000 O   0  0  0  0  0  0  0  0  0  0  0  0
   -2.6909   -2.8414    0.0000 C   0  0  0  0  0  0  0  0  0  0  0  0
   -1.8659   -2.8414    0.0000 C   0  0  0  0  0  0  0  0  0  0  0  0
   -3.1034   -3.5558    0.0000 C   0  0  0  0  0  0  0  0  0  0  0  0
   -2.6909   -4.2703    0.0000 C   0  0  0  0  0  0  0  0  0  0  0  0
   -3.1034   -4.9848    0.0000 C   0  0  0  0  0  0  0  0  0  0  0  0
   -3.9284   -4.9848    0.0000 C   0  0  0  0  0  0  0  0  0  0  0  0
   -4.3409   -4.2703    0.0000 C   0  0  0  0  0  0  0  0  0  0  0  0
   -3.9284   -3.5558    0.0000 C   0  0  0  0  0  0  0  0  0  0  0  0
   -5.5784   -2.1269    0.0000 N   0  0  0  0  0  0  0  0  0  0  0  0
   -6.4034   -2.1269    0.0000 N   0  0  0  0  0  0  0  0  0  0  0  0
  1  2  1  0  0  0  0
  2  3  1  0  0  0  0
  3  4  4  0  0  0  0
  4  5  4  0  0  0  0
  5  6  4  0  0  0  0
  6  7  1  0  0  0  0
  7  8  1  0  0  0  0
  8  9  2  0  0  0  0
  8 10  1  0  0  0  0
 10 11  4  0  0  0  0
 11 12  4  0  0  0  0
 12 13  1  0  0  0  0
 12 14  4  0  0  0  0
 14 15  1  0  0  0  0
 15 16  4  0  0  0  0
 16 17  4  0  0  0  0
 17 18  4  0  0  0  0
 18 19  4  0  0  0  0
 15 19  4  0  0  0  0
 19 20  2  0  0  0  0
 18 21  1  0  0  0  0
 21 22  1  0  0  0  0
 22 23  1  0  0  0  0
 23 24  1  0  0  0  0
 17 24  1  0  0  0  0
 14 25  4  0  0  0  0
 25 26  4  0  0  0  0
 10 26  4  0  0  0  0
 26 27  1  0  0  0  0
 27 28  1  0  0  0  0
 28 29  1  0  0  0  0
 28 30  1  0  0  0  0
 30 31  1  0  0  0  0
 31 32  1  0  0  0  0
 32 33  1  0  0  0  0
 33 34  1  0  0  0  0
 34 35  1  0  0  0  0
 30 35  1  0  0  0  0
  6 36  4  0  0  0  0
 36 37  4  0  0  0  0
  3 37  4  0  0  0  0
M  END
> <IC50(uM)>
0.7

> <Outcome>
1.0

> <BindingDB ID>
1020513

> <BindingDB MonomerID>
490461

> <BindingDB Ligand Name>
2-[(1S)-1-cyclohexylethoxy]-5-fluoro-N-(6-methoxypyridazin-3-yl)-4-(3-oxo-5,6,7,8-tetrahydro[1,2,4]triazolo[4,3-a]pyridin-2(3H)-yl)benzamide::US10968216, Example 129

> <Curation/DataSource>
US Patent

> <Article DOI>
?

> <PMID>
?

> <Patent Number>
US10968216

> <Authors>
Gradl, SN; Nguyen, D; Eis, K; Gunther, J; Stellfeld, T; Janzer, A; Christian, S; Mueller, T; Sheikh, SE; Zhou, HJ; Zhao, C; Sykes, DB; Ferrara, SJ; Liu, K; Herbert, SA; Merz, C; Niehues, M; Nising, CF; Schafer, M; Zimmermann, K; Knablein, J; Thede, K; Faupel, T

> <Link to Ligand in BindingDB>
http://www.bindingdb.org/bind/chemsearch/marvin/MolStructure.jsp?monomerid=490461

> <Link to Ligand-Target Pair in BindingDB>
http://www.bindingdb.org/jsp/dbsearch/PrimarySearch_ki.jsp?energyterm=kJ/mole&tag=r21&monomerid=490461&enzyme=Dihydroorotate+dehydrogenase&column=ki&startPg=0&Increment=50&submit=Search

> <PubChem CID>
134473934

> <PubChem SID>
447117188

$$$$

  Mrv2115 07222212352D          

 32 35  0  0  0  0            999 V2000
    0.5269   -3.0225    0.0000 C   0  0  0  0  0  0  0  0  0  0  0  0
   -0.0862   -2.4705    0.0000 C   0  0  0  0  0  0  0  0  0  0  0  0
   -0.8932   -2.6420    0.0000 N   0  0  0  0  0  0  0  0  0  0  0  0
   -1.3057   -1.9275    0.0000 N   0  0  0  0  0  0  0  0  0  0  0  0
   -0.7537   -1.3144    0.0000 C   0  0  0  0  0  0  0  0  0  0  0  0
   -0.9252   -0.5075    0.0000 Cl  0  0  0  0  0  0  0  0  0  0  0  0
    0.0000   -1.6500    0.0000 C   0  0  0  0  0  0  0  0  0  0  0  0
    0.7145   -1.2375    0.0000 C   0  0  0  0  0  0  0  0  0  0  0  0
    0.7145   -0.4125    0.0000 C   0  0  0  0  0  0  0  0  0  0  0  0
    1.4289    0.0000    0.0000 C   0  0  0  0  0  0  0  0  0  0  0  0
    1.4289    0.8250    0.0000 C   0  0  0  0  0  0  0  0  0  0  0  0
    2.1434    1.2375    0.0000 C   0  0  0  0  0  0  0  0  0  0  0  0
    0.7145    1.2375    0.0000 C   0  0  0  0  0  0  0  0  0  0  0  0
    2.1434   -0.4125    0.0000 C   0  0  0  0  0  0  0  0  0  0  0  0
    2.8579    0.0000    0.0000 C   0  0  0  0  0  0  0  0  0  0  0  0
    3.5724   -0.4125    0.0000 C   0  0  0  0  0  0  0  0  0  0  0  0
    4.2868   -0.0000    0.0000 C   0  0  0  0  0  0  0  0  0  0  0  0
    4.3731    0.8205    0.0000 C   0  0  0  0  0  0  0  0  0  0  0  0
    5.1800    0.9920    0.0000 N   0  0  0  0  0  0  0  0  0  0  0  0
    5.5156    1.7457    0.0000 C   0  0  0  0  0  0  0  0  0  0  0  0
    5.5925    0.2775    0.0000 C   0  0  0  0  0  0  0  0  0  0  0  0
    6.4130    0.1913    0.0000 C   0  0  0  0  0  0  0  0  0  0  0  0
    7.2335    0.1051    0.0000 C   0  0  0  0  0  0  0  0  0  0  0  0
    6.3268   -0.6292    0.0000 C   0  0  0  0  0  0  0  0  0  0  0  0
    6.4993    1.0118    0.0000 O   0  0  0  0  0  0  0  0  0  0  0  0
    5.0405   -0.3356    0.0000 N   0  0  0  0  0  0  0  0  0  0  0  0
    3.5724   -1.2375    0.0000 C   0  0  0  0  0  0  0  0  0  0  0  0
    4.2868   -1.6500    0.0000 F   0  0  0  0  0  0  0  0  0  0  0  0
    2.8579   -1.6500    0.0000 C   0  0  0  0  0  0  0  0  0  0  0  0
    2.1434   -1.2375    0.0000 N   0  0  0  0  0  0  0  0  0  0  0  0
    1.4289   -1.6500    0.0000 C   0  0  0  0  0  0  0  0  0  0  0  0
    1.4289   -2.4750    0.0000 O   0  0  0  0  0  0  0  0  0  0  0  0
  1  2  1  0  0  0  0
  2  3  4  0  0  0  0
  3  4  4  0  0  0  0
  4  5  4  0  0  0  0
  5  6  1  0  0  0  0
  5  7  4  0  0  0  0
  2  7  4  0  0  0  0
  7  8  1  0  0  0  0
  8  9  4  0  0  0  0
  9 10  4  0  0  0  0
 10 11  1  0  0  0  0
 11 12  1  0  0  0  0
 11 13  1  0  0  0  0
 10 14  4  0  0  0  0
 14 15  4  0  0  0  0
 15 16  4  0  0  0  0
 16 17  1  0  0  0  0
 17 18  4  0  0  0  0
 18 19  4  0  0  0  0
 19 20  1  0  0  0  0
 19 21  4  0  0  0  0
 21 22  1  0  0  0  0
 22 23  1  0  0  0  0
 22 24  1  0  0  0  0
 22 25  1  0  0  0  0
 21 26  4  0  0  0  0
 17 26  4  0  0  0  0
 16 27  4  0  0  0  0
 27 28  1  0  0  0  0
 27 29  4  0  0  0  0
 29 30  4  0  0  0  0
 14 30  4  0  0  0  0
 30 31  4  0  0  0  0
  8 31  4  0  0  0  0
 31 32  2  0  0  0  0
M  STY  1   1 DAT
M  SAL   1  1   4
M  SDT   1 MRV_IMPLICIT_H                                        
M  SDD   1     0.5304   -0.4125    DR    ALL  0       0  
M  SED   1 IMPL_H1
M  END
> <IC50(uM)>
0.00269

> <Outcome>
1.0

> <BindingDB ID>
1121400

> <BindingDB MonomerID>
530466

> <BindingDB Ligand Name>
3-(5-Chloro-3-methyl-1H-pyrazol-4-yl)-7-fluoro-8-(2-(2-hydroxypropan-2-yl)-1-methyl-1H-imidazol-4-yl)-1-isopropyl-4H-quinolizin-4-one.::WO2022070071, Example 4

> <Curation/DataSource>
Curated from the literature by BindingDB

> <Article DOI>
?

> <PMID>
WO2022070071

> <Patent Number>
?

> <Authors>
Lindsey, D; Scott, K

> <Link to Ligand in BindingDB>
http://www.bindingdb.org/bind/chemsearch/marvin/MolStructure.jsp?monomerid=530466

> <Link to Ligand-Target Pair in BindingDB>
http://www.bindingdb.org/jsp/dbsearch/PrimarySearch_ki.jsp?energyterm=kJ/mole&tag=r21&monomerid=530466&enzyme=Dihydroorotate+dehydrogenase&column=ki&startPg=0&Increment=50&submit=Search

> <PubChem CID>
?

> <PubChem SID>
?

$$$$

  Mrv2115 07222212352D          

 33 37  0  0  0  0            999 V2000
   -7.7484    5.0775    0.0000 C   0  0  0  0  0  0  0  0  0  0  0  0
   -7.2635    4.4100    0.0000 C   0  0  0  0  0  0  0  0  0  0  0  0
   -7.5990    3.6563    0.0000 C   0  0  0  0  0  0  0  0  0  0  0  0
   -6.4430    4.4963    0.0000 O   0  0  0  0  0  0  0  0  0  0  0  0
   -5.9581    3.8288    0.0000 C   0  0  0  0  0  0  0  0  0  0  0  0
   -6.2936    3.0751    0.0000 O   0  0  0  0  0  0  0  0  0  0  0  0
   -5.1376    3.9151    0.0000 C   0  0  0  0  0  0  0  0  0  0  0  0
   -4.8020    4.6687    0.0000 C   0  0  0  0  0  0  0  0  0  0  0  0
   -3.9816    4.7550    0.0000 C   0  0  0  0  0  0  0  0  0  0  0  0
   -3.4966    4.0875    0.0000 C   0  0  0  0  0  0  0  0  0  0  0  0
   -3.8322    3.3339    0.0000 C   0  0  0  0  0  0  0  0  0  0  0  0
   -3.3473    2.6664    0.0000 N   0  0  0  0  0  0  0  0  0  0  0  0
   -3.6022    1.8818    0.0000 N   0  0  0  0  0  0  0  0  0  0  0  0
   -2.9348    1.3969    0.0000 C   0  0  0  0  0  0  0  0  0  0  0  0
   -2.2673    1.8818    0.0000 C   0  0  0  0  0  0  0  0  0  0  0  0
   -2.5223    2.6664    0.0000 C   0  0  0  0  0  0  0  0  0  0  0  0
   -1.9702    3.2795    0.0000 C   0  0  0  0  0  0  0  0  0  0  0  0
   -1.1633    3.1080    0.0000 C   0  0  0  0  0  0  0  0  0  0  0  0
   -0.9083    2.3234    0.0000 C   0  0  0  0  0  0  0  0  0  0  0  0
   -1.4604    1.7103    0.0000 C   0  0  0  0  0  0  0  0  0  0  0  0
   -1.2054    0.9256    0.0000 N   0  0  0  0  0  0  0  0  0  0  0  0
   -0.3984    0.7541    0.0000 C   0  0  0  0  0  0  0  0  0  0  0  0
    0.1536    1.3672    0.0000 O   0  0  0  0  0  0  0  0  0  0  0  0
   -0.1435   -0.0305    0.0000 C   0  0  0  0  0  0  0  0  0  0  0  0
   -0.6284   -0.6979    0.0000 N   0  0  0  0  0  0  0  0  0  0  0  0
   -0.1435   -1.3654    0.0000 O   0  0  0  0  0  0  0  0  0  0  0  0
    0.6411   -1.1104    0.0000 C   0  0  0  0  0  0  0  0  0  0  0  0
    0.6411   -0.2854    0.0000 C   0  0  0  0  0  0  0  0  0  0  0  0
    1.3556    0.1271    0.0000 C   0  0  0  0  0  0  0  0  0  0  0  0
    2.0701   -0.2854    0.0000 C   0  0  0  0  0  0  0  0  0  0  0  0
    2.0701   -1.1104    0.0000 C   0  0  0  0  0  0  0  0  0  0  0  0
    1.3556   -1.5229    0.0000 C   0  0  0  0  0  0  0  0  0  0  0  0
   -4.6527    3.2476    0.0000 C   0  0  0  0  0  0  0  0  0  0  0  0
  1  2  1  0  0  0  0
  2  3  1  0  0  0  0
  2  4  1  0  0  0  0
  4  5  1  0  0  0  0
  5  6  2  0  0  0  0
  5  7  1  0  0  0  0
  7  8  4  0  0  0  0
  8  9  4  0  0  0  0
  9 10  4  0  0  0  0
 10 11  4  0  0  0  0
 11 12  1  0  0  0  0
 12 13  4  0  0  0  0
 13 14  4  0  0  0  0
 14 15  4  0  0  0  0
 15 16  4  0  0  0  0
 12 16  4  0  0  0  0
 16 17  1  0  0  0  0
 17 18  1  0  0  0  0
 18 19  1  0  0  0  0
 19 20  1  0  0  0  0
 15 20  1  0  0  0  0
 20 21  1  0  0  0  0
 21 22  1  0  0  0  0
 22 23  2  0  0  0  0
 22 24  1  0  0  0  0
 24 25  4  0  0  0  0
 25 26  4  0  0  0  0
 26 27  4  0  0  0  0
 27 28  4  0  0  0  0
 24 28  4  0  0  0  0
 28 29  1  0  0  0  0
 29 30  1  0  0  0  0
 30 31  1  0  0  0  0
 31 32  1  0  0  0  0
 27 32  1  0  0  0  0
 11 33  4  0  0  0  0
  7 33  4  0  0  0  0
M  END
> <IC50(uM)>
0.011

> <Outcome>
1.0

> <BindingDB ID>
993120

> <BindingDB MonomerID>
477622

> <BindingDB Ligand Name>
Propan-2-yl-3-[(4R)-4-(4,5,6,7-tetrahydro-1,2-benzoxazole-3-amido)-4,5,6,7-tetrahydro-1H-indazol-1-yl]benzoate::US10889564, Example 52

> <Curation/DataSource>
US Patent

> <Article DOI>
?

> <PMID>
?

> <Patent Number>
US10889564

> <Authors>
Lain, S; Drummond, C; Leeuwen, IV; Haraldsson, M; Johansson, L; Sandberg, L; Yngve, U

> <Link to Ligand in BindingDB>
http://www.bindingdb.org/bind/chemsearch/marvin/MolStructure.jsp?monomerid=477622

> <Link to Ligand-Target Pair in BindingDB>
http://www.bindingdb.org/jsp/dbsearch/PrimarySearch_ki.jsp?energyterm=kJ/mole&tag=r21&monomerid=477622&enzyme=Dihydroorotate+dehydrogenase&column=ki&startPg=0&Increment=50&submit=Search

> <PubChem CID>
129126945

> <PubChem SID>
442137239

$$$$

  Mrv2115 07222212352D          

 36 39  0  0  0  0            999 V2000
   -5.2708    1.4423    0.0000 C   0  0  0  0  0  0  0  0  0  0  0  0
   -5.6833    0.7279    0.0000 C   0  0  0  0  0  0  0  0  0  0  0  0
   -6.5083    0.7279    0.0000 C   0  0  0  0  0  0  0  0  0  0  0  0
   -6.9208    0.0134    0.0000 C   0  0  0  0  0  0  0  0  0  0  0  0
   -6.5083   -0.7011    0.0000 N   0  0  0  0  0  0  0  0  0  0  0  0
   -5.6833   -0.7011    0.0000 C   0  0  0  0  0  0  0  0  0  0  0  0
   -5.2708   -1.4156    0.0000 Cl  0  0  0  0  0  0  0  0  0  0  0  0
   -5.2708    0.0134    0.0000 C   0  0  0  0  0  0  0  0  0  0  0  0
   -4.4458    0.0134    0.0000 N   0  0  0  0  0  0  0  0  0  0  0  0
   -4.0333   -0.7011    0.0000 C   0  0  0  0  0  0  0  0  0  0  0  0
   -4.4458   -1.4156    0.0000 O   0  0  0  0  0  0  0  0  0  0  0  0
   -3.2083   -0.7011    0.0000 C   0  0  0  0  0  0  0  0  0  0  0  0
   -2.7958    0.0134    0.0000 C   0  0  0  0  0  0  0  0  0  0  0  0
   -1.9708    0.0134    0.0000 C   0  0  0  0  0  0  0  0  0  0  0  0
   -1.5583    0.7279    0.0000 F   0  0  0  0  0  0  0  0  0  0  0  0
   -1.5583   -0.7011    0.0000 C   0  0  0  0  0  0  0  0  0  0  0  0
   -0.7333   -0.7011    0.0000 N   0  0  0  0  0  0  0  0  0  0  0  0
   -0.2483   -1.3685    0.0000 N   0  0  0  0  0  0  0  0  0  0  0  0
    0.5363   -1.1136    0.0000 C   0  0  0  0  0  0  0  0  0  0  0  0
    0.5363   -0.2886    0.0000 N   0  0  0  0  0  0  0  0  0  0  0  0
   -0.2483   -0.0336    0.0000 C   0  0  0  0  0  0  0  0  0  0  0  0
   -0.5033    0.7510    0.0000 O   0  0  0  0  0  0  0  0  0  0  0  0
    1.1813    0.2258    0.0000 C   0  0  0  0  0  0  0  0  0  0  0  0
    1.9856    0.0422    0.0000 C   0  0  0  0  0  0  0  0  0  0  0  0
    2.3436   -0.7011    0.0000 C   0  0  0  0  0  0  0  0  0  0  0  0
    1.9856   -1.4444    0.0000 O   0  0  0  0  0  0  0  0  0  0  0  0
    1.1813   -1.6280    0.0000 C   0  0  0  0  0  0  0  0  0  0  0  0
   -1.9708   -1.4156    0.0000 C   0  0  0  0  0  0  0  0  0  0  0  0
   -2.7958   -1.4156    0.0000 C   0  0  0  0  0  0  0  0  0  0  0  0
   -3.2083   -2.1300    0.0000 O   0  0  0  0  0  0  0  0  0  0  0  0
   -2.7958   -2.8445    0.0000 C   0  0  0  0  0  0  0  0  0  0  0  0
   -1.9708   -2.8445    0.0000 C   0  0  0  0  0  0  0  0  0  0  0  0
   -3.2083   -3.5590    0.0000 C   0  0  0  0  0  0  0  0  0  0  0  0
   -3.9227   -3.1465    0.0000 F   0  0  0  0  0  0  0  0  0  0  0  0
   -2.4938   -3.9715    0.0000 F   0  0  0  0  0  0  0  0  0  0  0  0
   -3.6208   -4.2734    0.0000 F   0  0  0  0  0  0  0  0  0  0  0  0
  1  2  1  0  0  0  0
  2  3  4  0  0  0  0
  3  4  4  0  0  0  0
  4  5  4  0  0  0  0
  5  6  4  0  0  0  0
  6  7  1  0  0  0  0
  6  8  4  0  0  0  0
  2  8  4  0  0  0  0
  8  9  1  0  0  0  0
  9 10  1  0  0  0  0
 10 11  2  0  0  0  0
 10 12  1  0  0  0  0
 12 13  4  0  0  0  0
 13 14  4  0  0  0  0
 14 15  1  0  0  0  0
 14 16  4  0  0  0  0
 16 17  1  0  0  0  0
 17 18  4  0  0  0  0
 18 19  4  0  0  0  0
 19 20  4  0  0  0  0
 20 21  4  0  0  0  0
 17 21  4  0  0  0  0
 21 22  2  0  0  0  0
 20 23  1  0  0  0  0
 23 24  1  0  0  0  0
 24 25  1  0  0  0  0
 25 26  1  0  0  0  0
 26 27  1  0  0  0  0
 19 27  1  0  0  0  0
 16 28  4  0  0  0  0
 28 29  4  0  0  0  0
 12 29  4  0  0  0  0
 29 30  1  0  0  0  0
 30 31  1  0  0  0  0
 31 32  1  0  0  0  0
 31 33  1  0  0  0  0
 33 34  1  0  0  0  0
 33 35  1  0  0  0  0
 33 36  1  0  0  0  0
M  END
> <IC50(uM)>
0.025

> <Outcome>
1.0

> <BindingDB ID>
1020642

> <BindingDB MonomerID>
490571

> <BindingDB Ligand Name>
N-(2-chloro-4-methylpyridin-3-yl)-5-fluoro-4-(3-oxo-6,7-dihydro-3H,5H-[1,2,4]triazolo[3,4-c]-[1,4]oxazepin-2(9H)-yl)-2-{[(2S)-1,1,1-trifluoropropan-2-yl]oxy}benzamide::US10968216, Example 239

> <Curation/DataSource>
US Patent

> <Article DOI>
?

> <PMID>
?

> <Patent Number>
US10968216

> <Authors>
Gradl, SN; Nguyen, D; Eis, K; Gunther, J; Stellfeld, T; Janzer, A; Christian, S; Mueller, T; Sheikh, SE; Zhou, HJ; Zhao, C; Sykes, DB; Ferrara, SJ; Liu, K; Herbert, SA; Merz, C; Niehues, M; Nising, CF; Schafer, M; Zimmermann, K; Knablein, J; Thede, K; Faupel, T

> <Link to Ligand in BindingDB>
http://www.bindingdb.org/bind/chemsearch/marvin/MolStructure.jsp?monomerid=490571

> <Link to Ligand-Target Pair in BindingDB>
http://www.bindingdb.org/jsp/dbsearch/PrimarySearch_ki.jsp?energyterm=kJ/mole&tag=r21&monomerid=490571&enzyme=Dihydroorotate+dehydrogenase&column=ki&startPg=0&Increment=50&submit=Search

> <PubChem CID>
134474174

> <PubChem SID>
447117297

$$$$

  Mrv2115 07222212352D          

 24 26  0  0  0  0            999 V2000
   -0.7145    1.2375    0.0000 C   0  0  0  0  0  0  0  0  0  0  0  0
    0.0000    0.8250    0.0000 C   0  0  0  0  0  0  0  0  0  0  0  0
    0.0000   -0.0000    0.0000 O   0  0  0  0  0  0  0  0  0  0  0  0
    0.7145   -0.4125    0.0000 C   0  0  0  0  0  0  0  0  0  0  0  0
    1.4289   -0.0000    0.0000 O   0  0  0  0  0  0  0  0  0  0  0  0
    0.7145   -1.2375    0.0000 C   0  0  0  0  0  0  0  0  0  0  0  0
    1.3819   -1.7224    0.0000 S   0  0  0  0  0  0  0  0  0  0  0  0
    1.1270   -2.5070    0.0000 C   0  0  0  0  0  0  0  0  0  0  0  0
    1.6119   -3.1745    0.0000 N   0  0  0  0  0  0  0  0  0  0  0  0
    1.2763   -3.9282    0.0000 C   0  0  0  0  0  0  0  0  0  0  0  0
    1.7613   -4.5956    0.0000 C   0  0  0  0  0  0  0  0  0  0  0  0
    1.4257   -5.3493    0.0000 C   0  0  0  0  0  0  0  0  0  0  0  0
    0.6052   -5.4355    0.0000 C   0  0  0  0  0  0  0  0  0  0  0  0
    0.2697   -6.1892    0.0000 Cl  0  0  0  0  0  0  0  0  0  0  0  0
    0.1203   -4.7681    0.0000 C   0  0  0  0  0  0  0  0  0  0  0  0
    0.4559   -4.0144    0.0000 C   0  0  0  0  0  0  0  0  0  0  0  0
    0.3020   -2.5070    0.0000 N   0  0  0  0  0  0  0  0  0  0  0  0
    0.0470   -1.7224    0.0000 C   0  0  0  0  0  0  0  0  0  0  0  0
   -0.7376   -1.4675    0.0000 C   0  0  0  0  0  0  0  0  0  0  0  0
   -1.3507   -2.0195    0.0000 C   0  0  0  0  0  0  0  0  0  0  0  0
   -2.1353   -1.7646    0.0000 C   0  0  0  0  0  0  0  0  0  0  0  0
   -2.3068   -0.9576    0.0000 C   0  0  0  0  0  0  0  0  0  0  0  0
   -1.6937   -0.4056    0.0000 C   0  0  0  0  0  0  0  0  0  0  0  0
   -0.9091   -0.6605    0.0000 C   0  0  0  0  0  0  0  0  0  0  0  0
  1  2  1  0  0  0  0
  2  3  1  0  0  0  0
  3  4  1  0  0  0  0
  4  5  2  0  0  0  0
  4  6  1  0  0  0  0
  6  7  4  0  0  0  0
  7  8  4  0  0  0  0
  8  9  1  0  0  0  0
  9 10  1  0  0  0  0
 10 11  4  0  0  0  0
 11 12  4  0  0  0  0
 12 13  4  0  0  0  0
 13 14  1  0  0  0  0
 13 15  4  0  0  0  0
 15 16  4  0  0  0  0
 10 16  4  0  0  0  0
  8 17  4  0  0  0  0
 17 18  4  0  0  0  0
  6 18  4  0  0  0  0
 18 19  1  0  0  0  0
 19 20  4  0  0  0  0
 20 21  4  0  0  0  0
 21 22  4  0  0  0  0
 22 23  4  0  0  0  0
 23 24  4  0  0  0  0
 19 24  4  0  0  0  0
M  END
> <IC50(uM)>
0.239

> <Outcome>
1.0

> <BindingDB ID>
50312266

> <BindingDB MonomerID>
50071604

> <BindingDB Ligand Name>
CHEMBL3410599

> <Curation/DataSource>
ChEMBL

> <Article DOI>
10.1021/jm501127s

> <PMID>
25580811

> <Patent Number>
?

> <Authors>
Zhu, J; Han, L; Diao, Y; Ren, X; Xu, M; Xu, L; Li, S; Li, Q; Dong, D; Huang, J; Liu, X; Zhao, Z; Wang, R; Zhu, L; Xu, Y; Qian, X; Li, H

> <Link to Ligand in BindingDB>
http://www.bindingdb.org/bind/chemsearch/marvin/MolStructure.jsp?monomerid=50071604

> <Link to Ligand-Target Pair in BindingDB>
http://www.bindingdb.org/jsp/dbsearch/PrimarySearch_ki.jsp?energyterm=kJ/mole&tag=r21&monomerid=50071604&enzyme=Dihydroorotate+dehydrogenase&column=ki&startPg=0&Increment=50&submit=Search

> <PubChem CID>
10808375

> <PubChem SID>
313072551

$$$$

  Mrv2115 07222212352D          

 25 27  0  0  0  0            999 V2000
   -0.7145   -1.2375    0.0000 C   0  0  0  0  0  0  0  0  0  0  0  0
    0.0000   -1.6500    0.0000 O   0  0  0  0  0  0  0  0  0  0  0  0
    0.7145   -1.2375    0.0000 C   0  0  0  0  0  0  0  0  0  0  0  0
    0.7145   -0.4125    0.0000 C   0  0  0  0  0  0  0  0  0  0  0  0
    1.4289    0.0000    0.0000 C   0  0  0  0  0  0  0  0  0  0  0  0
    2.1434   -0.4125    0.0000 C   0  0  0  0  0  0  0  0  0  0  0  0
    2.8579    0.0000    0.0000 C   0  0  0  0  0  0  0  0  0  0  0  0
    3.5724   -0.4125    0.0000 C   0  0  0  0  0  0  0  0  0  0  0  0
    3.5724   -1.2375    0.0000 C   0  0  0  0  0  0  0  0  0  0  0  0
    4.2868   -1.6500    0.0000 C   0  0  0  0  0  0  0  0  0  0  0  0
    5.0013   -1.2375    0.0000 C   0  0  0  0  0  0  0  0  0  0  0  0
    5.7158   -1.6500    0.0000 C   0  0  0  0  0  0  0  0  0  0  0  0
    6.4302   -1.2375    0.0000 C   0  0  0  0  0  0  0  0  0  0  0  0
    6.4302   -0.4125    0.0000 C   0  0  0  0  0  0  0  0  0  0  0  0
    7.1447   -0.0000    0.0000 O   0  0  0  0  0  0  0  0  0  0  0  0
    5.7158   -0.0000    0.0000 O   0  0  0  0  0  0  0  0  0  0  0  0
    7.1447   -1.6500    0.0000 N   0  0  0  0  0  0  0  0  0  0  0  0
    7.1447   -2.4750    0.0000 C   0  0  0  0  0  0  0  0  0  0  0  0
    7.8592   -2.8875    0.0000 O   0  0  0  0  0  0  0  0  0  0  0  0
    6.4302   -2.8875    0.0000 N   0  0  0  0  0  0  0  0  0  0  0  0
    5.7158   -2.4750    0.0000 C   0  0  0  0  0  0  0  0  0  0  0  0
    5.0013   -2.8875    0.0000 O   0  0  0  0  0  0  0  0  0  0  0  0
    2.8579   -1.6500    0.0000 C   0  0  0  0  0  0  0  0  0  0  0  0
    2.1434   -1.2375    0.0000 C   0  0  0  0  0  0  0  0  0  0  0  0
    1.4289   -1.6500    0.0000 C   0  0  0  0  0  0  0  0  0  0  0  0
  1  2  1  0  0  0  0
  2  3  1  0  0  0  0
  3  4  4  0  0  0  0
  4  5  4  0  0  0  0
  5  6  4  0  0  0  0
  6  7  4  0  0  0  0
  7  8  4  0  0  0  0
  8  9  4  0  0  0  0
  9 10  1  0  0  0  0
 10 11  1  0  0  0  0
 11 12  1  0  0  0  0
 12 13  4  0  0  0  0
 13 14  1  0  0  0  0
 14 15  2  0  0  0  0
 14 16  1  0  0  0  0
 13 17  4  0  0  0  0
 17 18  4  0  0  0  0
 18 19  2  0  0  0  0
 18 20  4  0  0  0  0
 20 21  4  0  0  0  0
 12 21  4  0  0  0  0
 21 22  2  0  0  0  0
  9 23  4  0  0  0  0
 23 24  4  0  0  0  0
  6 24  4  0  0  0  0
 24 25  4  0  0  0  0
  3 25  4  0  0  0  0
M  STY  2   1 DAT   2 DAT
M  SAL   1  1  17
M  SDT   1 MRV_IMPLICIT_H                                        
M  SDD   1     0.5304   -0.4125    DR    ALL  0       0  
M  SED   1 IMPL_H1
M  SAL   2  1  20
M  SDT   2 MRV_IMPLICIT_H                                        
M  SDD   2     0.6482   -0.4125    DR    ALL  0       0  
M  SED   2 IMPL_H1
M  END
> <IC50(uM)>
0.013

> <Outcome>
1.0

> <BindingDB ID>
50555343

> <BindingDB MonomerID>
50211702

> <BindingDB Ligand Name>
CHEMBL3962745

> <Curation/DataSource>
ChEMBL

> <Article DOI>
10.1016/j.bmc.2017.01.009

> <PMID>
28118956

> <Patent Number>
?

> <Authors>
Inaoka, DK; Iida, M; Hashimoto, S; Tabuchi, T; Kuranaga, T; Balogun, EO; Honma, T; Tanaka, A; Harada, S; Nara, T; Kita, K; Inoue, M

> <Link to Ligand in BindingDB>
http://www.bindingdb.org/bind/chemsearch/marvin/MolStructure.jsp?monomerid=50211702

> <Link to Ligand-Target Pair in BindingDB>
http://www.bindingdb.org/jsp/dbsearch/PrimarySearch_ki.jsp?energyterm=kJ/mole&tag=r21&monomerid=50211702&enzyme=Dihydroorotate+dehydrogenase&column=ki&startPg=0&Increment=50&submit=Search

> <PubChem CID>
134152813

> <PubChem SID>
375983045

$$$$

  Mrv2115 07222212352D          

 31 33  0  0  0  0            999 V2000
   -3.4782    6.7819    0.0000 C   0  0  0  0  0  0  0  0  0  0  0  0
   -2.6577    6.6957    0.0000 C   0  0  0  0  0  0  0  0  0  0  0  0
   -2.3221    5.9420    0.0000 C   0  0  0  0  0  0  0  0  0  0  0  0
   -1.5152    5.7705    0.0000 N   0  0  0  0  0  0  0  0  0  0  0  0
   -1.4289    4.9500    0.0000 N   0  0  0  0  0  0  0  0  0  0  0  0
   -0.7145    4.5375    0.0000 C   0  0  0  0  0  0  0  0  0  0  0  0
    0.0000    4.9500    0.0000 C   0  0  0  0  0  0  0  0  0  0  0  0
    0.7145    4.5375    0.0000 C   0  0  0  0  0  0  0  0  0  0  0  0
    1.4289    4.9500    0.0000 O   0  0  0  0  0  0  0  0  0  0  0  0
    1.4289    5.7750    0.0000 C   0  0  0  0  0  0  0  0  0  0  0  0
    0.7145    6.1875    0.0000 C   0  0  0  0  0  0  0  0  0  0  0  0
    2.1434    6.1875    0.0000 C   0  0  0  0  0  0  0  0  0  0  0  0
    2.3569    6.9844    0.0000 C   0  0  0  0  0  0  0  0  0  0  0  0
    3.1538    6.7709    0.0000 C   0  0  0  0  0  0  0  0  0  0  0  0
    2.9403    5.9740    0.0000 C   0  0  0  0  0  0  0  0  0  0  0  0
    0.7145    3.7125    0.0000 C   0  0  0  0  0  0  0  0  0  0  0  0
    1.4289    3.3000    0.0000 C   0  0  0  0  0  0  0  0  0  0  0  0
    2.1434    3.7125    0.0000 O   0  0  0  0  0  0  0  0  0  0  0  0
    1.4289    2.4750    0.0000 N   0  0  0  0  0  0  0  0  0  0  0  0
    2.1434    2.0625    0.0000 C   0  0  0  0  0  0  0  0  0  0  0  0
    2.1434    1.2375    0.0000 C   0  0  0  0  0  0  0  0  0  0  0  0
    2.8579    0.8250    0.0000 C   0  0  0  0  0  0  0  0  0  0  0  0
    2.8579    2.4750    0.0000 C   0  0  0  0  0  0  0  0  0  0  0  0
    3.5724    2.0625    0.0000 C   0  0  0  0  0  0  0  0  0  0  0  0
    0.0000    3.3000    0.0000 C   0  0  0  0  0  0  0  0  0  0  0  0
   -0.7145    3.7125    0.0000 C   0  0  0  0  0  0  0  0  0  0  0  0
   -1.4289    3.3000    0.0000 F   0  0  0  0  0  0  0  0  0  0  0  0
   -2.1826    4.6144    0.0000 C   0  0  0  0  0  0  0  0  0  0  0  0
   -2.3541    3.8075    0.0000 O   0  0  0  0  0  0  0  0  0  0  0  0
   -2.7346    5.2275    0.0000 N   0  0  0  0  0  0  0  0  0  0  0  0
   -3.5551    5.1413    0.0000 C   0  0  0  0  0  0  0  0  0  0  0  0
  1  2  1  0  0  0  0
  2  3  1  0  0  0  0
  3  4  4  0  0  0  0
  4  5  4  0  0  0  0
  5  6  1  0  0  0  0
  6  7  4  0  0  0  0
  7  8  4  0  0  0  0
  8  9  1  0  0  0  0
  9 10  1  0  0  0  0
 10 11  1  0  0  0  0
 10 12  1  0  0  0  0
 12 13  1  0  0  0  0
 13 14  1  0  0  0  0
 14 15  1  0  0  0  0
 12 15  1  0  0  0  0
  8 16  4  0  0  0  0
 16 17  1  0  0  0  0
 17 18  2  0  0  0  0
 17 19  1  0  0  0  0
 19 20  1  0  0  0  0
 20 21  1  0  0  0  0
 21 22  1  0  0  0  0
 20 23  1  0  0  0  0
 23 24  1  0  0  0  0
 16 25  4  0  0  0  0
 25 26  4  0  0  0  0
  6 26  4  0  0  0  0
 26 27  1  0  0  0  0
  5 28  4  0  0  0  0
 28 29  2  0  0  0  0
 28 30  4  0  0  0  0
  3 30  4  0  0  0  0
 30 31  1  0  0  0  0
M  END
> <IC50(uM)>
0.06449999999999999

> <Outcome>
1.0

> <BindingDB ID>
1098789; 972635; 972636; 1098790

> <BindingDB MonomerID>
470514

> <BindingDB Ligand Name>
2-(1-cyclobutylethoxy)-4-(3-ethyl-4-methyl-5-oxo-4,5-dihydro-1H-1,2,4-triazol-1-yl)-5-fluoro-N-(pentan-3-yl)benzamide, Mixture of Stereoisomers::US10815215, Example 173::US11130745, Example 173; 2-(1-cyclobutylethoxy)-4-(3-ethyl-4-methyl-5-oxo-4,5-dihydro-1H-1,2,4-triazol-1-yl)-5-fluoro-N-(pentan-3-yl)benzamide, Mixture of Stereoisomers::US10815215, Example 173

> <Curation/DataSource>
US Patent

> <Article DOI>
?

> <PMID>
?

> <Patent Number>
US11130745; US10815215

> <Authors>
Gradl, SN; Nguyen, D; Eis, K; Gunther, J; Stellfeld, T; Janzer, A; Christian, S; Muller, T; Sheikh, SE; Sykes, DB; Ferrara, SJ; Krober, M; Merz, C; Niehues, M; Schafer, M; Zimmermann, K; Nising, CF; Gradl, SN; Nguyen, D; Eis, K; Gunther, J; Stellfeld, T; Janzer, A; Christian, S; Muller, T; Sheikh, SE; Zhou, HJ; Zhao, C; Sykes, DB; Ferrara, SJ; Liu, K; Krober, M; Merz, C; Niehues, M; Schafer, M; Zimmermann, K; Nising, CF

> <Link to Ligand in BindingDB>
http://www.bindingdb.org/bind/chemsearch/marvin/MolStructure.jsp?monomerid=470514

> <Link to Ligand-Target Pair in BindingDB>
http://www.bindingdb.org/jsp/dbsearch/PrimarySearch_ki.jsp?energyterm=kJ/mole&tag=r21&monomerid=470514&enzyme=Dihydroorotate+dehydrogenase&column=ki&startPg=0&Increment=50&submit=Search

> <PubChem CID>
134470110

> <PubChem SID>
441609691

$$$$

  Mrv2115 07222212352D          

 35 38  0  0  0  0            999 V2000
    2.1434   -2.8875    0.0000 C   0  0  0  0  0  0  0  0  0  0  0  0
    1.4289   -2.4750    0.0000 C   0  0  0  0  0  0  0  0  0  0  0  0
    0.7145   -2.8875    0.0000 C   0  0  0  0  0  0  0  0  0  0  0  0
    1.4289   -1.6500    0.0000 C   0  0  0  0  0  0  0  0  0  0  0  0
    0.7145   -1.2375    0.0000 C   0  0  0  0  0  0  0  0  0  0  0  0
    0.7145   -0.4125    0.0000 N   0  0  0  0  0  0  0  0  0  0  0  0
    0.0000    0.0000    0.0000 C   0  0  0  0  0  0  0  0  0  0  0  0
   -0.7145   -0.4125    0.0000 C   0  0  0  0  0  0  0  0  0  0  0  0
   -0.7145   -1.2375    0.0000 F   0  0  0  0  0  0  0  0  0  0  0  0
   -1.4289    0.0000    0.0000 C   0  0  0  0  0  0  0  0  0  0  0  0
   -1.4289    0.8250    0.0000 C   0  0  0  0  0  0  0  0  0  0  0  0
   -0.7145    1.2375    0.0000 C   0  0  0  0  0  0  0  0  0  0  0  0
   -0.7145    2.0625    0.0000 O   0  0  0  0  0  0  0  0  0  0  0  0
   -1.4289    2.4750    0.0000 C   0  0  0  0  0  0  0  0  0  0  0  0
    0.0000    0.8250    0.0000 C   0  0  0  0  0  0  0  0  0  0  0  0
    0.7145    1.2375    0.0000 Cl  0  0  0  0  0  0  0  0  0  0  0  0
    1.4289    0.0000    0.0000 C   0  0  0  0  0  0  0  0  0  0  0  0
    1.4289    0.8250    0.0000 O   0  0  0  0  0  0  0  0  0  0  0  0
    2.1434   -0.4125    0.0000 C   0  0  0  0  0  0  0  0  0  0  0  0
    2.8579    0.0000    0.0000 C   0  0  0  0  0  0  0  0  0  0  0  0
    3.5724   -0.4125    0.0000 C   0  0  0  0  0  0  0  0  0  0  0  0
    4.2868   -0.0000    0.0000 F   0  0  0  0  0  0  0  0  0  0  0  0
    3.5724   -1.2375    0.0000 C   0  0  0  0  0  0  0  0  0  0  0  0
    4.2868   -1.6500    0.0000 N   0  0  0  0  0  0  0  0  0  0  0  0
    5.0405   -1.3144    0.0000 N   0  0  0  0  0  0  0  0  0  0  0  0
    5.5925   -1.9275    0.0000 C   0  0  0  0  0  0  0  0  0  0  0  0
    6.4130   -1.8413    0.0000 C   0  0  0  0  0  0  0  0  0  0  0  0
    6.7486   -1.0876    0.0000 O   0  0  0  0  0  0  0  0  0  0  0  0
    5.1800   -2.6420    0.0000 N   0  0  0  0  0  0  0  0  0  0  0  0
    5.5156   -3.3957    0.0000 C   0  0  0  0  0  0  0  0  0  0  0  0
    5.0307   -4.0631    0.0000 C   0  0  0  0  0  0  0  0  0  0  0  0
    4.3731   -2.4705    0.0000 C   0  0  0  0  0  0  0  0  0  0  0  0
    3.7600   -3.0225    0.0000 O   0  0  0  0  0  0  0  0  0  0  0  0
    2.8579   -1.6500    0.0000 C   0  0  0  0  0  0  0  0  0  0  0  0
    2.1434   -1.2375    0.0000 C   0  0  0  0  0  0  0  0  0  0  0  0
  1  2  2  0  0  0  0
  2  3  1  0  0  0  0
  2  4  1  0  0  0  0
  4  5  4  0  0  0  0
  5  6  4  0  0  0  0
  6  7  1  0  0  0  0
  7  8  4  0  0  0  0
  8  9  1  0  0  0  0
  8 10  4  0  0  0  0
 10 11  4  0  0  0  0
 11 12  4  0  0  0  0
 12 13  1  0  0  0  0
 13 14  1  0  0  0  0
 12 15  4  0  0  0  0
  7 15  4  0  0  0  0
 15 16  1  0  0  0  0
  6 17  4  0  0  0  0
 17 18  2  0  0  0  0
 17 19  4  0  0  0  0
 19 20  4  0  0  0  0
 20 21  4  0  0  0  0
 21 22  1  0  0  0  0
 21 23  4  0  0  0  0
 23 24  1  0  0  0  0
 24 25  4  0  0  0  0
 25 26  4  0  0  0  0
 26 27  1  0  0  0  0
 27 28  1  0  0  0  0
 26 29  4  0  0  0  0
 29 30  1  0  0  0  0
 30 31  1  0  0  0  0
 29 32  4  0  0  0  0
 24 32  4  0  0  0  0
 32 33  2  0  0  0  0
 23 34  4  0  0  0  0
 34 35  4  0  0  0  0
  4 35  4  0  0  0  0
 19 35  4  0  0  0  0
M  END
> <IC50(uM)>
2.6700000000000004E-4

> <Outcome>
1.0

> <BindingDB ID>
51360202

> <BindingDB MonomerID>
50549952

> <BindingDB Ligand Name>
CHEMBL4752247

> <Curation/DataSource>
ChEMBL

> <Article DOI>
?

> <PMID>
33603957

> <Patent Number>
?

> <Authors>
Sabnis, RW

> <Link to Ligand in BindingDB>
http://www.bindingdb.org/bind/chemsearch/marvin/MolStructure.jsp?monomerid=50549952

> <Link to Ligand-Target Pair in BindingDB>
http://www.bindingdb.org/jsp/dbsearch/PrimarySearch_ki.jsp?energyterm=kJ/mole&tag=r21&monomerid=50549952&enzyme=Dihydroorotate+dehydrogenase&column=ki&startPg=0&Increment=50&submit=Search

> <PubChem CID>
155209578

> <PubChem SID>
461680292

$$$$

  Mrv2115 07222212352D          

 34 37  0  0  0  0            999 V2000
   -0.6284    2.1599    0.0000 C   0  0  0  0  0  0  0  0  0  0  0  0
   -1.4534    2.1599    0.0000 C   0  0  0  0  0  0  0  0  0  0  0  0
   -1.8659    1.4455    0.0000 C   0  0  0  0  0  0  0  0  0  0  0  0
   -2.6909    1.4455    0.0000 C   0  0  0  0  0  0  0  0  0  0  0  0
   -3.1034    2.1599    0.0000 C   0  0  0  0  0  0  0  0  0  0  0  0
   -3.1034    0.7310    0.0000 O   0  0  0  0  0  0  0  0  0  0  0  0
   -2.6909    0.0165    0.0000 C   0  0  0  0  0  0  0  0  0  0  0  0
   -1.8659    0.0165    0.0000 C   0  0  0  0  0  0  0  0  0  0  0  0
   -1.4534   -0.6979    0.0000 C   0  0  0  0  0  0  0  0  0  0  0  0
   -0.6284   -0.6979    0.0000 N   0  0  0  0  0  0  0  0  0  0  0  0
   -0.1435   -1.3654    0.0000 N   0  0  0  0  0  0  0  0  0  0  0  0
    0.6411   -1.1104    0.0000 C   0  0  0  0  0  0  0  0  0  0  0  0
    0.6411   -0.2854    0.0000 N   0  0  0  0  0  0  0  0  0  0  0  0
   -0.1435   -0.0305    0.0000 C   0  0  0  0  0  0  0  0  0  0  0  0
   -0.3984    0.7541    0.0000 O   0  0  0  0  0  0  0  0  0  0  0  0
    1.3556    0.1271    0.0000 C   0  0  0  0  0  0  0  0  0  0  0  0
    2.0701   -0.2854    0.0000 C   0  0  0  0  0  0  0  0  0  0  0  0
    2.0701   -1.1104    0.0000 C   0  0  0  0  0  0  0  0  0  0  0  0
    1.3556   -1.5229    0.0000 C   0  0  0  0  0  0  0  0  0  0  0  0
   -1.8659   -1.4124    0.0000 C   0  0  0  0  0  0  0  0  0  0  0  0
   -1.4534   -2.1269    0.0000 F   0  0  0  0  0  0  0  0  0  0  0  0
   -2.6909   -1.4124    0.0000 C   0  0  0  0  0  0  0  0  0  0  0  0
   -3.1034   -0.6979    0.0000 C   0  0  0  0  0  0  0  0  0  0  0  0
   -3.9284   -0.6979    0.0000 C   0  0  0  0  0  0  0  0  0  0  0  0
   -4.3409    0.0165    0.0000 O   0  0  0  0  0  0  0  0  0  0  0  0
   -4.3409   -1.4124    0.0000 N   0  0  0  0  0  0  0  0  0  0  0  0
   -5.1659   -1.4124    0.0000 C   0  0  0  0  0  0  0  0  0  0  0  0
   -5.5784   -0.6979    0.0000 C   0  0  0  0  0  0  0  0  0  0  0  0
   -5.1659    0.0165    0.0000 F   0  0  0  0  0  0  0  0  0  0  0  0
   -6.4034   -0.6979    0.0000 C   0  0  0  0  0  0  0  0  0  0  0  0
   -6.8159   -1.4124    0.0000 C   0  0  0  0  0  0  0  0  0  0  0  0
   -6.4034   -2.1269    0.0000 C   0  0  0  0  0  0  0  0  0  0  0  0
   -5.5784   -2.1269    0.0000 C   0  0  0  0  0  0  0  0  0  0  0  0
   -5.1659   -2.8414    0.0000 Cl  0  0  0  0  0  0  0  0  0  0  0  0
  1  2  1  0  0  0  0
  2  3  1  0  0  0  0
  3  4  1  0  0  0  0
  4  5  1  0  0  0  0
  4  6  1  0  0  0  0
  6  7  1  0  0  0  0
  7  8  4  0  0  0  0
  8  9  4  0  0  0  0
  9 10  1  0  0  0  0
 10 11  4  0  0  0  0
 11 12  4  0  0  0  0
 12 13  4  0  0  0  0
 13 14  4  0  0  0  0
 10 14  4  0  0  0  0
 14 15  2  0  0  0  0
 13 16  1  0  0  0  0
 16 17  1  0  0  0  0
 17 18  1  0  0  0  0
 18 19  1  0  0  0  0
 12 19  1  0  0  0  0
  9 20  4  0  0  0  0
 20 21  1  0  0  0  0
 20 22  4  0  0  0  0
 22 23  4  0  0  0  0
  7 23  4  0  0  0  0
 23 24  1  0  0  0  0
 24 25  2  0  0  0  0
 24 26  1  0  0  0  0
 26 27  1  0  0  0  0
 27 28  4  0  0  0  0
 28 29  1  0  0  0  0
 28 30  4  0  0  0  0
 30 31  4  0  0  0  0
 31 32  4  0  0  0  0
 32 33  4  0  0  0  0
 27 33  4  0  0  0  0
 33 34  1  0  0  0  0
M  END
> <IC50(uM)>
0.001

> <Outcome>
1.0

> <BindingDB ID>
1020381

> <BindingDB MonomerID>
490338

> <BindingDB Ligand Name>
N-(2-chloro-6-fluorophenyl)-5-fluoro-4-(3-oxo-5,6,7,8-tetrahydro[1,2,4]triazolo[4,3-a]pyridin-2(3H)-yl)-2-[(2S)-pentan-2-yloxy]benzamide::US10968216, Example 6

> <Curation/DataSource>
US Patent

> <Article DOI>
?

> <PMID>
?

> <Patent Number>
US10968216

> <Authors>
Gradl, SN; Nguyen, D; Eis, K; Gunther, J; Stellfeld, T; Janzer, A; Christian, S; Mueller, T; Sheikh, SE; Zhou, HJ; Zhao, C; Sykes, DB; Ferrara, SJ; Liu, K; Herbert, SA; Merz, C; Niehues, M; Nising, CF; Schafer, M; Zimmermann, K; Knablein, J; Thede, K; Faupel, T

> <Link to Ligand in BindingDB>
http://www.bindingdb.org/bind/chemsearch/marvin/MolStructure.jsp?monomerid=490338

> <Link to Ligand-Target Pair in BindingDB>
http://www.bindingdb.org/jsp/dbsearch/PrimarySearch_ki.jsp?energyterm=kJ/mole&tag=r21&monomerid=490338&enzyme=Dihydroorotate+dehydrogenase&column=ki&startPg=0&Increment=50&submit=Search

> <PubChem CID>
134474275

> <PubChem SID>
447117065

$$$$

  Mrv2115 07222212352D          

 24 26  0  0  0  0            999 V2000
    2.1434   -2.8875    0.0000 C   0  0  0  0  0  0  0  0  0  0  0  0
    2.1434   -3.7125    0.0000 C   0  0  0  0  0  0  0  0  0  0  0  0
    1.4289   -4.1250    0.0000 C   0  0  0  0  0  0  0  0  0  0  0  0
    1.4289   -4.9500    0.0000 C   0  0  0  0  0  0  0  0  0  0  0  0
    2.1434   -5.3625    0.0000 C   0  0  0  0  0  0  0  0  0  0  0  0
    2.1434   -6.1875    0.0000 N   0  0  0  0  0  0  0  0  0  0  0  0
    1.4289   -6.6000    0.0000 C   0  0  0  0  0  0  0  0  0  0  0  0
    1.4289   -7.4250    0.0000 C   0  0  0  0  0  0  0  0  0  0  0  0
    0.7145   -7.8375    0.0000 N   0  0  0  0  0  0  0  0  0  0  0  0
    0.0000   -7.4250    0.0000 C   0  0  0  0  0  0  0  0  0  0  0  0
   -0.7145   -7.8375    0.0000 C   0  0  0  0  0  0  0  0  0  0  0  0
   -0.7145   -8.6625    0.0000 C   0  0  0  0  0  0  0  0  0  0  0  0
   -1.4289   -9.0750    0.0000 C   0  0  0  0  0  0  0  0  0  0  0  0
   -2.1434   -8.6625    0.0000 C   0  0  0  0  0  0  0  0  0  0  0  0
   -2.1434   -7.8375    0.0000 C   0  0  0  0  0  0  0  0  0  0  0  0
   -1.4289   -7.4250    0.0000 C   0  0  0  0  0  0  0  0  0  0  0  0
   -1.4289   -6.6000    0.0000 Cl  0  0  0  0  0  0  0  0  0  0  0  0
    0.0000   -6.6000    0.0000 N   0  0  0  0  0  0  0  0  0  0  0  0
    0.7145   -6.1875    0.0000 C   0  0  0  0  0  0  0  0  0  0  0  0
    2.8579   -4.9500    0.0000 C   0  0  0  0  0  0  0  0  0  0  0  0
    3.5724   -5.3625    0.0000 C   0  0  0  0  0  0  0  0  0  0  0  0
    4.2868   -4.9500    0.0000 O   0  0  0  0  0  0  0  0  0  0  0  0
    3.5724   -6.1875    0.0000 O   0  0  0  0  0  0  0  0  0  0  0  0
    2.8579   -4.1250    0.0000 C   0  0  0  0  0  0  0  0  0  0  0  0
  1  2  1  0  0  0  0
  2  3  4  0  0  0  0
  3  4  4  0  0  0  0
  4  5  4  0  0  0  0
  5  6  1  0  0  0  0
  6  7  1  0  0  0  0
  7  8  4  0  0  0  0
  8  9  4  0  0  0  0
  9 10  4  0  0  0  0
 10 11  1  0  0  0  0
 11 12  4  0  0  0  0
 12 13  4  0  0  0  0
 13 14  4  0  0  0  0
 14 15  4  0  0  0  0
 15 16  4  0  0  0  0
 11 16  4  0  0  0  0
 16 17  1  0  0  0  0
 10 18  4  0  0  0  0
 18 19  4  0  0  0  0
  7 19  4  0  0  0  0
  5 20  4  0  0  0  0
 20 21  1  0  0  0  0
 21 22  2  0  0  0  0
 21 23  1  0  0  0  0
 20 24  4  0  0  0  0
  2 24  4  0  0  0  0
M  END
> <IC50(uM)>
0.057

> <Outcome>
1.0

> <BindingDB ID>
220019

> <BindingDB MonomerID>
102489

> <BindingDB Ligand Name>
US8536165, 93

> <Curation/DataSource>
US Patent

> <Article DOI>
?

> <PMID>
?

> <Patent Number>
US8536165

> <Authors>
Castro Palomino Laria, JC; Terricabras Belart, E; Erra Sola, M; Navarro Romero, E; Fonquerna Pou, S; Cardus Figueras, A; Lozoya Toribio, ME

> <Link to Ligand in BindingDB>
http://www.bindingdb.org/bind/chemsearch/marvin/MolStructure.jsp?monomerid=102489

> <Link to Ligand-Target Pair in BindingDB>
http://www.bindingdb.org/jsp/dbsearch/PrimarySearch_ki.jsp?energyterm=kJ/mole&tag=r21&monomerid=102489&enzyme=Dihydroorotate+dehydrogenase&column=ki&startPg=0&Increment=50&submit=Search

> <PubChem CID>
56968471

> <PubChem SID>
172097780

$$$$

  Mrv2115 07222212352D          

 20 22  0  0  0  0            999 V2000
   -1.4289   -4.1250    0.0000 C   0  0  0  0  0  0  0  0  0  0  0  0
   -0.7145   -4.5375    0.0000 C   0  0  0  0  0  0  0  0  0  0  0  0
    0.0000   -4.1250    0.0000 C   0  0  0  0  0  0  0  0  0  0  0  0
    0.7145   -4.5375    0.0000 C   0  0  0  0  0  0  0  0  0  0  0  0
    1.4289   -4.1250    0.0000 C   0  0  0  0  0  0  0  0  0  0  0  0
    2.1434   -4.5375    0.0000 C   0  0  0  0  0  0  0  0  0  0  0  0
    2.1434   -5.3625    0.0000 C   0  0  0  0  0  0  0  0  0  0  0  0
    2.8579   -5.7750    0.0000 C   0  0  0  0  0  0  0  0  0  0  0  0
    3.5724   -5.3625    0.0000 C   0  0  0  0  0  0  0  0  0  0  0  0
    3.5724   -4.5375    0.0000 C   0  0  0  0  0  0  0  0  0  0  0  0
    2.8579   -4.1250    0.0000 C   0  0  0  0  0  0  0  0  0  0  0  0
    2.8579   -3.3000    0.0000 N   0  0  0  0  0  0  0  0  0  0  0  0
    3.5724   -2.8875    0.0000 C   0  0  0  0  0  0  0  0  0  0  0  0
    3.5724   -2.0625    0.0000 C   0  0  0  0  0  0  0  0  0  0  0  0
    4.2868   -1.6500    0.0000 C   0  0  0  0  0  0  0  0  0  0  0  0
    5.0013   -2.0625    0.0000 C   0  0  0  0  0  0  0  0  0  0  0  0
    5.0013   -2.8875    0.0000 C   0  0  0  0  0  0  0  0  0  0  0  0
    4.2868   -3.3000    0.0000 C   0  0  0  0  0  0  0  0  0  0  0  0
    4.2868   -4.1250    0.0000 C   0  0  0  0  0  0  0  0  0  0  0  0
    5.0013   -4.5375    0.0000 O   0  0  0  0  0  0  0  0  0  0  0  0
  1  2  1  0  0  0  0
  2  3  1  0  0  0  0
  3  4  1  0  0  0  0
  4  5  1  0  0  0  0
  5  6  1  0  0  0  0
  6  7  1  0  0  0  0
  7  8  1  0  0  0  0
  8  9  1  0  0  0  0
  9 10  1  0  0  0  0
 10 11  4  0  0  0  0
  6 11  1  0  0  0  0
 11 12  4  0  0  0  0
 12 13  4  0  0  0  0
 13 14  4  0  0  0  0
 14 15  4  0  0  0  0
 15 16  4  0  0  0  0
 16 17  4  0  0  0  0
 17 18  4  0  0  0  0
 13 18  4  0  0  0  0
 18 19  4  0  0  0  0
 10 19  4  0  0  0  0
 19 20  1  0  0  0  0
M  END
> <IC50(uM)>
30.0

> <Outcome>
0.0

> <BindingDB ID>
200941; 248278

> <BindingDB MonomerID>
92603

> <BindingDB Ligand Name>
DHOD Inhibitor, 2::US8703811, 3

> <Curation/DataSource>
Curated from the literature by BindingDB; US Patent

> <Article DOI>
10.1074/jbc.M804990200; ?

> <PMID>
18842591; ?

> <Patent Number>
?; US8703811

> <Authors>
Patel, V; Booker, M; Kramer, M; Ross, L; Celatka, CA; Kennedy, LM; Dvorin, JD; Duraisingh, MT; Sliz, P; Wirth, DF; Clardy, J; Bastos, C; Booker, ML; Celatka, CA; Clardy, JC; Cortese, J; Patel, VP; Skerlj, R; Wiegand, RC; Wirth, DF

> <Link to Ligand in BindingDB>
http://www.bindingdb.org/bind/chemsearch/marvin/MolStructure.jsp?monomerid=92603

> <Link to Ligand-Target Pair in BindingDB>
http://www.bindingdb.org/jsp/dbsearch/PrimarySearch_ki.jsp?energyterm=kJ/mole&tag=r21&monomerid=92603&enzyme=Dihydroorotate+dehydrogenase&column=ki&startPg=0&Increment=50&submit=Search

> <PubChem CID>
4037122

> <PubChem SID>
160845100

$$$$

  Mrv2115 07222212352D          

 26 27  0  0  0  0            999 V2000
   -2.1434   -3.7125    0.0000 C   0  0  0  0  0  0  0  0  0  0  0  0
   -1.4289   -4.1250    0.0000 C   0  0  0  0  0  0  0  0  0  0  0  0
   -1.4289   -4.9500    0.0000 O   0  0  0  0  0  0  0  0  0  0  0  0
   -0.7145   -3.7125    0.0000 C   0  0  0  0  0  0  0  0  0  0  0  0
   -0.7145   -2.8875    0.0000 C   0  0  0  0  0  0  0  0  0  0  0  0
   -0.7145   -2.0625    0.0000 N   0  0  0  0  0  0  0  0  0  0  0  0
    0.0000   -4.1250    0.0000 C   0  0  0  0  0  0  0  0  0  0  0  0
    0.0000   -4.9500    0.0000 O   0  0  0  0  0  0  0  0  0  0  0  0
    0.7145   -3.7125    0.0000 N   0  0  0  0  0  0  0  0  0  0  0  0
    0.7145   -2.8875    0.0000 C   0  0  0  0  0  0  0  0  0  0  0  0
    0.0000   -2.4750    0.0000 C   0  0  0  0  0  0  0  0  0  0  0  0
    0.0000   -1.6500    0.0000 C   0  0  0  0  0  0  0  0  0  0  0  0
    0.7145   -1.2375    0.0000 C   0  0  0  0  0  0  0  0  0  0  0  0
    0.7145   -0.4125    0.0000 C   0  0  0  0  0  0  0  0  0  0  0  0
    0.0000   -0.0000    0.0000 C   0  0  0  0  0  0  0  0  0  0  0  0
    0.0000    0.8250    0.0000 C   0  0  0  0  0  0  0  0  0  0  0  0
    0.7145    1.2375    0.0000 C   0  0  0  0  0  0  0  0  0  0  0  0
    1.4289    0.8250    0.0000 C   0  0  0  0  0  0  0  0  0  0  0  0
    1.4289   -0.0000    0.0000 C   0  0  0  0  0  0  0  0  0  0  0  0
    2.1434   -0.4125    0.0000 Cl  0  0  0  0  0  0  0  0  0  0  0  0
    1.4289   -1.6500    0.0000 C   0  0  0  0  0  0  0  0  0  0  0  0
    1.4289   -2.4750    0.0000 C   0  0  0  0  0  0  0  0  0  0  0  0
    2.1434   -2.8875    0.0000 C   0  0  0  0  0  0  0  0  0  0  0  0
    2.8579   -3.3000    0.0000 F   0  0  0  0  0  0  0  0  0  0  0  0
    1.7309   -3.6020    0.0000 F   0  0  0  0  0  0  0  0  0  0  0  0
    2.5559   -2.1730    0.0000 F   0  0  0  0  0  0  0  0  0  0  0  0
  1  2  1  0  0  0  0
  2  3  2  0  0  0  0
  2  4  1  0  0  0  0
  4  5  1  0  0  0  0
  5  6  3  0  0  0  0
  4  7  1  0  0  0  0
  7  8  2  0  0  0  0
  7  9  1  0  0  0  0
  9 10  1  0  0  0  0
 10 11  4  0  0  0  0
 11 12  4  0  0  0  0
 12 13  4  0  0  0  0
 13 14  1  0  0  0  0
 14 15  4  0  0  0  0
 15 16  4  0  0  0  0
 16 17  4  0  0  0  0
 17 18  4  0  0  0  0
 18 19  4  0  0  0  0
 14 19  4  0  0  0  0
 19 20  1  0  0  0  0
 13 21  4  0  0  0  0
 21 22  4  0  0  0  0
 10 22  4  0  0  0  0
 22 23  1  0  0  0  0
 23 24  1  0  0  0  0
 23 25  1  0  0  0  0
 23 26  1  0  0  0  0
M  END
> <IC50(uM)>
0.17

> <Outcome>
1.0

> <BindingDB ID>
52788

> <BindingDB MonomerID>
29028

> <BindingDB Ligand Name>
cyanohydroxybutenamide, 18

> <Curation/DataSource>
Curated from the literature by BindingDB

> <Article DOI>
10.1021/jm800963t

> <PMID>
19351152

> <Patent Number>
?

> <Authors>
Davies, M; Heikkil&auml;, T; McConkey, GA; Fishwick, CW; Parsons, MR; Johnson, AP

> <Link to Ligand in BindingDB>
http://www.bindingdb.org/bind/chemsearch/marvin/MolStructure.jsp?monomerid=29028

> <Link to Ligand-Target Pair in BindingDB>
http://www.bindingdb.org/jsp/dbsearch/PrimarySearch_ki.jsp?energyterm=kJ/mole&tag=r21&monomerid=29028&enzyme=Dihydroorotate+dehydrogenase&column=ki&startPg=0&Increment=50&submit=Search

> <PubChem CID>
91896054

> <PubChem SID>
81054457

$$$$

  Mrv2115 07222212352D          

 33 36  0  0  0  0            999 V2000
    2.1434   -2.8875    0.0000 C   0  0  0  0  0  0  0  0  0  0  0  0
    1.4289   -2.4750    0.0000 C   0  0  0  0  0  0  0  0  0  0  0  0
    0.7145   -2.8875    0.0000 C   0  0  0  0  0  0  0  0  0  0  0  0
    1.4289   -1.6500    0.0000 C   0  0  0  0  0  0  0  0  0  0  0  0
    0.7145   -1.2375    0.0000 C   0  0  0  0  0  0  0  0  0  0  0  0
    0.7145   -0.4125    0.0000 N   0  0  0  0  0  0  0  0  0  0  0  0
    0.0000    0.0000    0.0000 C   0  0  0  0  0  0  0  0  0  0  0  0
   -0.7145   -0.4125    0.0000 C   0  0  0  0  0  0  0  0  0  0  0  0
   -1.4289    0.0000    0.0000 C   0  0  0  0  0  0  0  0  0  0  0  0
   -2.1434   -0.4125    0.0000 F   0  0  0  0  0  0  0  0  0  0  0  0
   -1.4289    0.8250    0.0000 C   0  0  0  0  0  0  0  0  0  0  0  0
   -0.7145    1.2375    0.0000 C   0  0  0  0  0  0  0  0  0  0  0  0
    0.0000    0.8250    0.0000 C   0  0  0  0  0  0  0  0  0  0  0  0
    0.7145    1.2375    0.0000 C   0  0  0  0  0  0  0  0  0  0  0  0
    1.4289    0.0000    0.0000 C   0  0  0  0  0  0  0  0  0  0  0  0
    1.4289    0.8250    0.0000 O   0  0  0  0  0  0  0  0  0  0  0  0
    2.1434   -0.4125    0.0000 C   0  0  0  0  0  0  0  0  0  0  0  0
    2.8579    0.0000    0.0000 C   0  0  0  0  0  0  0  0  0  0  0  0
    3.5724   -0.4125    0.0000 C   0  0  0  0  0  0  0  0  0  0  0  0
    4.2868   -0.0000    0.0000 F   0  0  0  0  0  0  0  0  0  0  0  0
    3.5724   -1.2375    0.0000 C   0  0  0  0  0  0  0  0  0  0  0  0
    4.2868   -1.6500    0.0000 N   0  0  0  0  0  0  0  0  0  0  0  0
    5.0405   -1.3144    0.0000 N   0  0  0  0  0  0  0  0  0  0  0  0
    5.5925   -1.9275    0.0000 C   0  0  0  0  0  0  0  0  0  0  0  0
    6.4130   -1.8413    0.0000 C   0  0  0  0  0  0  0  0  0  0  0  0
    6.7486   -1.0876    0.0000 O   0  0  0  0  0  0  0  0  0  0  0  0
    5.1800   -2.6420    0.0000 N   0  0  0  0  0  0  0  0  0  0  0  0
    5.5156   -3.3957    0.0000 C   0  0  0  0  0  0  0  0  0  0  0  0
    5.0307   -4.0631    0.0000 C   0  0  0  0  0  0  0  0  0  0  0  0
    4.3731   -2.4705    0.0000 C   0  0  0  0  0  0  0  0  0  0  0  0
    3.7600   -3.0225    0.0000 O   0  0  0  0  0  0  0  0  0  0  0  0
    2.8579   -1.6500    0.0000 C   0  0  0  0  0  0  0  0  0  0  0  0
    2.1434   -1.2375    0.0000 C   0  0  0  0  0  0  0  0  0  0  0  0
  1  2  2  0  0  0  0
  2  3  1  0  0  0  0
  2  4  1  0  0  0  0
  4  5  4  0  0  0  0
  5  6  4  0  0  0  0
  6  7  1  0  0  0  0
  7  8  4  0  0  0  0
  8  9  4  0  0  0  0
  9 10  1  0  0  0  0
  9 11  4  0  0  0  0
 11 12  4  0  0  0  0
 12 13  4  0  0  0  0
  7 13  4  0  0  0  0
 13 14  1  0  0  0  0
  6 15  4  0  0  0  0
 15 16  2  0  0  0  0
 15 17  4  0  0  0  0
 17 18  4  0  0  0  0
 18 19  4  0  0  0  0
 19 20  1  0  0  0  0
 19 21  4  0  0  0  0
 21 22  1  0  0  0  0
 22 23  4  0  0  0  0
 23 24  4  0  0  0  0
 24 25  1  0  0  0  0
 25 26  1  0  0  0  0
 24 27  4  0  0  0  0
 27 28  1  0  0  0  0
 28 29  1  0  0  0  0
 27 30  4  0  0  0  0
 22 30  4  0  0  0  0
 30 31  2  0  0  0  0
 21 32  4  0  0  0  0
 32 33  4  0  0  0  0
  4 33  4  0  0  0  0
 17 33  4  0  0  0  0
M  END
> <IC50(uM)>
2.49E-4

> <Outcome>
1.0

> <BindingDB ID>
51360199

> <BindingDB MonomerID>
50549949

> <BindingDB Ligand Name>
CHEMBL4753279

> <Curation/DataSource>
ChEMBL

> <Article DOI>
?

> <PMID>
33603957

> <Patent Number>
?

> <Authors>
Sabnis, RW

> <Link to Ligand in BindingDB>
http://www.bindingdb.org/bind/chemsearch/marvin/MolStructure.jsp?monomerid=50549949

> <Link to Ligand-Target Pair in BindingDB>
http://www.bindingdb.org/jsp/dbsearch/PrimarySearch_ki.jsp?energyterm=kJ/mole&tag=r21&monomerid=50549949&enzyme=Dihydroorotate+dehydrogenase&column=ki&startPg=0&Increment=50&submit=Search

> <PubChem CID>
155209497

> <PubChem SID>
461680289

$$$$

  Mrv2115 07222212352D          

 22 23  0  0  0  0            999 V2000
    0.0000   -4.9500    0.0000 C   0  0  0  0  0  0  0  0  0  0  0  0
    0.7145   -5.3625    0.0000 C   0  0  0  0  0  0  0  0  0  0  0  0
    0.7145   -6.1875    0.0000 O   0  0  0  0  0  0  0  0  0  0  0  0
    1.4289   -4.9500    0.0000 C   0  0  0  0  0  0  0  0  0  0  0  0
    1.4289   -4.1250    0.0000 C   0  0  0  0  0  0  0  0  0  0  0  0
    1.4289   -3.3000    0.0000 N   0  0  0  0  0  0  0  0  0  0  0  0
    2.1434   -5.3625    0.0000 C   0  0  0  0  0  0  0  0  0  0  0  0
    2.1434   -6.1875    0.0000 O   0  0  0  0  0  0  0  0  0  0  0  0
    2.8579   -4.9500    0.0000 N   0  0  0  0  0  0  0  0  0  0  0  0
    3.5724   -5.3625    0.0000 C   0  0  0  0  0  0  0  0  0  0  0  0
    4.2868   -4.9500    0.0000 C   0  0  0  0  0  0  0  0  0  0  0  0
    5.0013   -5.3625    0.0000 C   0  0  0  0  0  0  0  0  0  0  0  0
    5.0013   -6.1875    0.0000 C   0  0  0  0  0  0  0  0  0  0  0  0
    5.7158   -6.6000    0.0000 C   0  0  0  0  0  0  0  0  0  0  0  0
    6.4302   -6.1875    0.0000 C   0  0  0  0  0  0  0  0  0  0  0  0
    7.1447   -6.6000    0.0000 C   0  0  0  0  0  0  0  0  0  0  0  0
    7.1447   -7.4250    0.0000 C   0  0  0  0  0  0  0  0  0  0  0  0
    6.4302   -7.8375    0.0000 C   0  0  0  0  0  0  0  0  0  0  0  0
    5.7158   -7.4250    0.0000 C   0  0  0  0  0  0  0  0  0  0  0  0
    4.2868   -6.6000    0.0000 C   0  0  0  0  0  0  0  0  0  0  0  0
    3.5724   -6.1875    0.0000 C   0  0  0  0  0  0  0  0  0  0  0  0
    2.8579   -6.6000    0.0000 Cl  0  0  0  0  0  0  0  0  0  0  0  0
  1  2  1  0  0  0  0
  2  3  2  0  0  0  0
  2  4  1  0  0  0  0
  4  5  1  0  0  0  0
  5  6  3  0  0  0  0
  4  7  1  0  0  0  0
  7  8  2  0  0  0  0
  7  9  1  0  0  0  0
  9 10  1  0  0  0  0
 10 11  4  0  0  0  0
 11 12  4  0  0  0  0
 12 13  4  0  0  0  0
 13 14  1  0  0  0  0
 14 15  4  0  0  0  0
 15 16  4  0  0  0  0
 16 17  4  0  0  0  0
 17 18  4  0  0  0  0
 18 19  4  0  0  0  0
 14 19  4  0  0  0  0
 13 20  4  0  0  0  0
 20 21  4  0  0  0  0
 10 21  4  0  0  0  0
 21 22  1  0  0  0  0
M  END
> <IC50(uM)>
0.32

> <Outcome>
1.0

> <BindingDB ID>
52798

> <BindingDB MonomerID>
29038

> <BindingDB Ligand Name>
cyanohydroxybutenamide, 28

> <Curation/DataSource>
Curated from the literature by BindingDB

> <Article DOI>
10.1021/jm800963t

> <PMID>
19351152

> <Patent Number>
?

> <Authors>
Davies, M; Heikkil&auml;, T; McConkey, GA; Fishwick, CW; Parsons, MR; Johnson, AP

> <Link to Ligand in BindingDB>
http://www.bindingdb.org/bind/chemsearch/marvin/MolStructure.jsp?monomerid=29038

> <Link to Ligand-Target Pair in BindingDB>
http://www.bindingdb.org/jsp/dbsearch/PrimarySearch_ki.jsp?energyterm=kJ/mole&tag=r21&monomerid=29038&enzyme=Dihydroorotate+dehydrogenase&column=ki&startPg=0&Increment=50&submit=Search

> <PubChem CID>
91896064

> <PubChem SID>
81054467

$$$$

  Mrv2115 07222212352D          

 22 25  0  0  0  0            999 V2000
    3.3523   -0.2854    0.0000 O   0  0  0  0  0  0  0  0  0  0  0  0
    3.3523   -1.1104    0.0000 C   0  0  0  0  0  0  0  0  0  0  0  0
    4.0668   -1.5229    0.0000 C   0  0  0  0  0  0  0  0  0  0  0  0
    4.7812   -1.1104    0.0000 C   0  0  0  0  0  0  0  0  0  0  0  0
    5.4957   -1.5229    0.0000 C   0  0  0  0  0  0  0  0  0  0  0  0
    5.4957   -2.3479    0.0000 C   0  0  0  0  0  0  0  0  0  0  0  0
    4.7812   -2.7604    0.0000 C   0  0  0  0  0  0  0  0  0  0  0  0
    4.0668   -2.3479    0.0000 C   0  0  0  0  0  0  0  0  0  0  0  0
    3.3523   -2.7604    0.0000 C   0  0  0  0  0  0  0  0  0  0  0  0
    3.3523   -3.5854    0.0000 O   0  0  0  0  0  0  0  0  0  0  0  0
    2.6378   -2.3479    0.0000 C   0  0  0  0  0  0  0  0  0  0  0  0
    2.6378   -1.5229    0.0000 C   0  0  0  0  0  0  0  0  0  0  0  0
    1.8532   -1.2680    0.0000 N   0  0  0  0  0  0  0  0  0  0  0  0
    1.3683   -1.9354    0.0000 N   0  0  0  0  0  0  0  0  0  0  0  0
    1.8532   -2.6029    0.0000 N   0  0  0  0  0  0  0  0  0  0  0  0
    1.5983   -3.3875    0.0000 C   0  0  0  0  0  0  0  0  0  0  0  0
    2.1503   -4.0006    0.0000 C   0  0  0  0  0  0  0  0  0  0  0  0
    1.8953   -4.7852    0.0000 C   0  0  0  0  0  0  0  0  0  0  0  0
    1.0884   -4.9567    0.0000 N   0  0  0  0  0  0  0  0  0  0  0  0
    0.5363   -4.3437    0.0000 C   0  0  0  0  0  0  0  0  0  0  0  0
   -0.2706   -4.5152    0.0000 Cl  0  0  0  0  0  0  0  0  0  0  0  0
    0.7913   -3.5590    0.0000 C   0  0  0  0  0  0  0  0  0  0  0  0
  1  2  2  0  0  0  0
  2  3  1  0  0  0  0
  3  4  4  0  0  0  0
  4  5  4  0  0  0  0
  5  6  4  0  0  0  0
  6  7  4  0  0  0  0
  7  8  4  0  0  0  0
  3  8  4  0  0  0  0
  8  9  1  0  0  0  0
  9 10  2  0  0  0  0
  9 11  1  0  0  0  0
 11 12  4  0  0  0  0
  2 12  1  0  0  0  0
 12 13  4  0  0  0  0
 13 14  4  0  0  0  0
 14 15  4  0  0  0  0
 11 15  4  0  0  0  0
 15 16  1  0  0  0  0
 16 17  4  0  0  0  0
 17 18  4  0  0  0  0
 18 19  4  0  0  0  0
 19 20  4  0  0  0  0
 20 21  1  0  0  0  0
 20 22  4  0  0  0  0
 16 22  4  0  0  0  0
M  END
> <IC50(uM)>
1.0

> <Outcome>
1.0

> <BindingDB ID>
51338172

> <BindingDB MonomerID>
50541646

> <BindingDB Ligand Name>
CHEMBL4636127

> <Curation/DataSource>
ChEMBL

> <Article DOI>
10.1021/acs.jmedchem.0c00512

> <PMID>
32496056

> <Patent Number>
?

> <Authors>
Zuo, Z; Liu, X; Qian, X; Zeng, T; Sang, N; Liu, H; Zhou, Y; Tao, L; Zhou, X; Su, N; Yu, Y; Chen, Q; Luo, Y; Zhao, Y

> <Link to Ligand in BindingDB>
http://www.bindingdb.org/bind/chemsearch/marvin/MolStructure.jsp?monomerid=50541646

> <Link to Ligand-Target Pair in BindingDB>
http://www.bindingdb.org/jsp/dbsearch/PrimarySearch_ki.jsp?energyterm=kJ/mole&tag=r21&monomerid=50541646&enzyme=Dihydroorotate+dehydrogenase&column=ki&startPg=0&Increment=50&submit=Search

> <PubChem CID>
156013653

> <PubChem SID>
442143209

$$$$

  Mrv2115 07222212352D          

 33 35  0  0  0  0            999 V2000
    2.1434   -3.7125    0.0000 C   0  0  0  0  0  0  0  0  0  0  0  0
    2.8579   -4.1250    0.0000 C   0  0  0  0  0  0  0  0  0  0  0  0
    3.5724   -3.7125    0.0000 C   0  0  0  0  0  0  0  0  0  0  0  0
    4.2868   -4.1250    0.0000 C   0  0  0  0  0  0  0  0  0  0  0  0
    4.2868   -4.9500    0.0000 C   0  0  0  0  0  0  0  0  0  0  0  0
    5.0013   -3.7125    0.0000 O   0  0  0  0  0  0  0  0  0  0  0  0
    5.0013   -2.8875    0.0000 C   0  0  0  0  0  0  0  0  0  0  0  0
    4.2868   -2.4750    0.0000 C   0  0  0  0  0  0  0  0  0  0  0  0
    4.2868   -1.6500    0.0000 C   0  0  0  0  0  0  0  0  0  0  0  0
    3.5724   -1.2375    0.0000 N   0  0  0  0  0  0  0  0  0  0  0  0
    2.8187   -1.5731    0.0000 N   0  0  0  0  0  0  0  0  0  0  0  0
    2.2666   -0.9600    0.0000 C   0  0  0  0  0  0  0  0  0  0  0  0
    1.4462   -1.0462    0.0000 C   0  0  0  0  0  0  0  0  0  0  0  0
    1.1106   -1.7999    0.0000 O   0  0  0  0  0  0  0  0  0  0  0  0
    2.6791   -0.2455    0.0000 N   0  0  0  0  0  0  0  0  0  0  0  0
    2.3436    0.5082    0.0000 C   0  0  0  0  0  0  0  0  0  0  0  0
    3.4861   -0.4170    0.0000 C   0  0  0  0  0  0  0  0  0  0  0  0
    4.0992    0.1350    0.0000 O   0  0  0  0  0  0  0  0  0  0  0  0
    5.0013   -1.2375    0.0000 C   0  0  0  0  0  0  0  0  0  0  0  0
    5.0013   -0.4125    0.0000 F   0  0  0  0  0  0  0  0  0  0  0  0
    5.7158   -1.6500    0.0000 C   0  0  0  0  0  0  0  0  0  0  0  0
    5.7158   -2.4750    0.0000 C   0  0  0  0  0  0  0  0  0  0  0  0
    6.4302   -2.8875    0.0000 C   0  0  0  0  0  0  0  0  0  0  0  0
    6.4302   -3.7125    0.0000 O   0  0  0  0  0  0  0  0  0  0  0  0
    7.1447   -2.4750    0.0000 N   0  0  0  0  0  0  0  0  0  0  0  0
    7.8592   -2.8875    0.0000 C   0  0  0  0  0  0  0  0  0  0  0  0
    8.5737   -2.4750    0.0000 C   0  0  0  0  0  0  0  0  0  0  0  0
    8.5737   -1.6500    0.0000 F   0  0  0  0  0  0  0  0  0  0  0  0
    9.2881   -2.8875    0.0000 C   0  0  0  0  0  0  0  0  0  0  0  0
    9.2881   -3.7125    0.0000 C   0  0  0  0  0  0  0  0  0  0  0  0
    8.5737   -4.1250    0.0000 C   0  0  0  0  0  0  0  0  0  0  0  0
    7.8592   -3.7125    0.0000 C   0  0  0  0  0  0  0  0  0  0  0  0
    7.1447   -4.1250    0.0000 Cl  0  0  0  0  0  0  0  0  0  0  0  0
  1  2  1  0  0  0  0
  2  3  1  0  0  0  0
  3  4  1  0  0  0  0
  4  5  1  0  0  0  0
  4  6  1  0  0  0  0
  6  7  1  0  0  0  0
  7  8  4  0  0  0  0
  8  9  4  0  0  0  0
  9 10  1  0  0  0  0
 10 11  4  0  0  0  0
 11 12  4  0  0  0  0
 12 13  1  0  0  0  0
 13 14  1  0  0  0  0
 12 15  4  0  0  0  0
 15 16  1  0  0  0  0
 15 17  4  0  0  0  0
 10 17  4  0  0  0  0
 17 18  2  0  0  0  0
  9 19  4  0  0  0  0
 19 20  1  0  0  0  0
 19 21  4  0  0  0  0
 21 22  4  0  0  0  0
  7 22  4  0  0  0  0
 22 23  1  0  0  0  0
 23 24  2  0  0  0  0
 23 25  1  0  0  0  0
 25 26  1  0  0  0  0
 26 27  4  0  0  0  0
 27 28  1  0  0  0  0
 27 29  4  0  0  0  0
 29 30  4  0  0  0  0
 30 31  4  0  0  0  0
 31 32  4  0  0  0  0
 26 32  4  0  0  0  0
 32 33  1  0  0  0  0
M  END
> <IC50(uM)>
0.0032000000000000006

> <Outcome>
1.0

> <BindingDB ID>
1098747; 972593

> <BindingDB MonomerID>
470472

> <BindingDB Ligand Name>
N-(2-chloro-6-fluorophenyl)-5-fluoro-4-[3-(hydroxymethyl)-4-methyl-5-oxo-4,5-dihydro-1H-1,2,4-triazol-1-yl]-2-[(2S)-pentan-2-yloxy]benzamide::US10815215, Example 135::US11130745, Example 135; N-(2-chloro-6-fluorophenyl)-5-fluoro-4-[3-(hydroxymethyl)-4-methyl-5-oxo-4,5-dihydro-1H-1,2,4-triazol-1-yl]-2-[(2S)-pentan-2-yloxy]benzamide::US10815215, Example 135

> <Curation/DataSource>
US Patent

> <Article DOI>
?

> <PMID>
?

> <Patent Number>
US11130745; US10815215

> <Authors>
Gradl, SN; Nguyen, D; Eis, K; Gunther, J; Stellfeld, T; Janzer, A; Christian, S; Muller, T; Sheikh, SE; Sykes, DB; Ferrara, SJ; Krober, M; Merz, C; Niehues, M; Schafer, M; Zimmermann, K; Nising, CF; Gradl, SN; Nguyen, D; Eis, K; Gunther, J; Stellfeld, T; Janzer, A; Christian, S; Muller, T; Sheikh, SE; Zhou, HJ; Zhao, C; Sykes, DB; Ferrara, SJ; Liu, K; Krober, M; Merz, C; Niehues, M; Schafer, M; Zimmermann, K; Nising, CF

> <Link to Ligand in BindingDB>
http://www.bindingdb.org/bind/chemsearch/marvin/MolStructure.jsp?monomerid=470472

> <Link to Ligand-Target Pair in BindingDB>
http://www.bindingdb.org/jsp/dbsearch/PrimarySearch_ki.jsp?energyterm=kJ/mole&tag=r21&monomerid=470472&enzyme=Dihydroorotate+dehydrogenase&column=ki&startPg=0&Increment=50&submit=Search

> <PubChem CID>
142335840

> <PubChem SID>
441609649

$$$$

  Mrv2115 07222212352D          

 23 24  0  0  0  0            999 V2000
    2.1434   -0.4125    0.0000 C   0  0  0  0  0  0  0  0  0  0  0  0
    2.1434   -1.2375    0.0000 N   0  0  0  0  0  0  0  0  0  0  0  0
    1.4289   -1.6500    0.0000 C   0  0  0  0  0  0  0  0  0  0  0  0
    0.7145   -1.2375    0.0000 O   0  0  0  0  0  0  0  0  0  0  0  0
    1.4289   -2.4750    0.0000 C   0  0  0  0  0  0  0  0  0  0  0  0
    2.1434   -2.8875    0.0000 C   0  0  0  0  0  0  0  0  0  0  0  0
    2.1434   -3.7125    0.0000 C   0  0  0  0  0  0  0  0  0  0  0  0
    1.4289   -4.1250    0.0000 C   0  0  0  0  0  0  0  0  0  0  0  0
    0.7145   -3.7125    0.0000 C   0  0  0  0  0  0  0  0  0  0  0  0
    0.0000   -4.1250    0.0000 C   0  0  0  0  0  0  0  0  0  0  0  0
    0.0000   -4.9500    0.0000 C   0  0  0  0  0  0  0  0  0  0  0  0
   -0.7145   -5.3625    0.0000 C   0  0  0  0  0  0  0  0  0  0  0  0
   -0.7145   -6.1875    0.0000 C   0  0  0  0  0  0  0  0  0  0  0  0
   -0.0000   -6.6000    0.0000 C   0  0  0  0  0  0  0  0  0  0  0  0
   -0.0000   -7.4250    0.0000 O   0  0  0  0  0  0  0  0  0  0  0  0
    0.7145   -6.1875    0.0000 O   0  0  0  0  0  0  0  0  0  0  0  0
   -1.4289   -6.6000    0.0000 N   0  0  0  0  0  0  0  0  0  0  0  0
   -2.1434   -6.1875    0.0000 C   0  0  0  0  0  0  0  0  0  0  0  0
   -2.8579   -6.6000    0.0000 O   0  0  0  0  0  0  0  0  0  0  0  0
   -2.1434   -5.3625    0.0000 N   0  0  0  0  0  0  0  0  0  0  0  0
   -1.4289   -4.9500    0.0000 C   0  0  0  0  0  0  0  0  0  0  0  0
   -1.4289   -4.1250    0.0000 O   0  0  0  0  0  0  0  0  0  0  0  0
    0.7145   -2.8875    0.0000 C   0  0  0  0  0  0  0  0  0  0  0  0
  1  2  1  0  0  0  0
  2  3  1  0  0  0  0
  3  4  2  0  0  0  0
  3  5  1  0  0  0  0
  5  6  4  0  0  0  0
  6  7  4  0  0  0  0
  7  8  4  0  0  0  0
  8  9  4  0  0  0  0
  9 10  1  0  0  0  0
 10 11  1  0  0  0  0
 11 12  1  0  0  0  0
 12 13  4  0  0  0  0
 13 14  1  0  0  0  0
 14 15  2  0  0  0  0
 14 16  1  0  0  0  0
 13 17  4  0  0  0  0
 17 18  4  0  0  0  0
 18 19  2  0  0  0  0
 18 20  4  0  0  0  0
 20 21  4  0  0  0  0
 12 21  4  0  0  0  0
 21 22  2  0  0  0  0
  9 23  4  0  0  0  0
  5 23  4  0  0  0  0
M  STY  2   1 DAT   2 DAT
M  SAL   1  1  17
M  SDT   1 MRV_IMPLICIT_H                                        
M  SDD   1     0.6482   -0.4125    DR    ALL  0       0  
M  SED   1 IMPL_H1
M  SAL   2  1  20
M  SDT   2 MRV_IMPLICIT_H                                        
M  SDD   2     0.5304   -0.4125    DR    ALL  0       0  
M  SED   2 IMPL_H1
M  END
> <IC50(uM)>
2.07

> <Outcome>
0.0

> <BindingDB ID>
50555340

> <BindingDB MonomerID>
50211937

> <BindingDB Ligand Name>
CHEMBL3938116

> <Curation/DataSource>
ChEMBL

> <Article DOI>
10.1016/j.bmc.2017.01.009

> <PMID>
28118956

> <Patent Number>
?

> <Authors>
Inaoka, DK; Iida, M; Hashimoto, S; Tabuchi, T; Kuranaga, T; Balogun, EO; Honma, T; Tanaka, A; Harada, S; Nara, T; Kita, K; Inoue, M

> <Link to Ligand in BindingDB>
http://www.bindingdb.org/bind/chemsearch/marvin/MolStructure.jsp?monomerid=50211937

> <Link to Ligand-Target Pair in BindingDB>
http://www.bindingdb.org/jsp/dbsearch/PrimarySearch_ki.jsp?energyterm=kJ/mole&tag=r21&monomerid=50211937&enzyme=Dihydroorotate+dehydrogenase&column=ki&startPg=0&Increment=50&submit=Search

> <PubChem CID>
134149497

> <PubChem SID>
104088015

$$$$

  Mrv2115 07222212352D          

 26 29  0  0  0  0            999 V2000
    1.4358   -2.7631    0.0000 O   0  0  0  0  0  0  0  0  0  0  0  0
    0.8838   -2.1500    0.0000 C   0  0  0  0  0  0  0  0  0  0  0  0
    0.0768   -2.3215    0.0000 N   0  0  0  0  0  0  0  0  0  0  0  0
   -0.1781   -3.1062    0.0000 C   0  0  0  0  0  0  0  0  0  0  0  0
    0.3739   -3.7192    0.0000 C   0  0  0  0  0  0  0  0  0  0  0  0
    0.1190   -4.5039    0.0000 C   0  0  0  0  0  0  0  0  0  0  0  0
   -0.6880   -4.6754    0.0000 C   0  0  0  0  0  0  0  0  0  0  0  0
   -0.9429   -5.4600    0.0000 O   0  0  0  0  0  0  0  0  0  0  0  0
   -1.7499   -5.6315    0.0000 C   0  0  0  0  0  0  0  0  0  0  0  0
   -2.0049   -6.4162    0.0000 C   0  0  0  0  0  0  0  0  0  0  0  0
   -2.8118   -6.5877    0.0000 C   0  0  0  0  0  0  0  0  0  0  0  0
   -3.3639   -5.9746    0.0000 C   0  0  0  0  0  0  0  0  0  0  0  0
   -3.1089   -5.1900    0.0000 C   0  0  0  0  0  0  0  0  0  0  0  0
   -2.3020   -5.0184    0.0000 C   0  0  0  0  0  0  0  0  0  0  0  0
   -1.2400   -4.0623    0.0000 C   0  0  0  0  0  0  0  0  0  0  0  0
   -0.9851   -3.2777    0.0000 C   0  0  0  0  0  0  0  0  0  0  0  0
    1.1387   -1.3654    0.0000 C   0  0  0  0  0  0  0  0  0  0  0  0
    0.6538   -0.6979    0.0000 C   0  0  0  0  0  0  0  0  0  0  0  0
   -0.1712   -0.6979    0.0000 O   0  0  0  0  0  0  0  0  0  0  0  0
    1.1387   -0.0305    0.0000 N   0  0  0  0  0  0  0  0  0  0  0  0
    1.9233   -0.2854    0.0000 N   0  0  0  0  0  0  0  0  0  0  0  0
    2.6378    0.1271    0.0000 C   0  0  0  0  0  0  0  0  0  0  0  0
    3.3523   -0.2854    0.0000 C   0  0  0  0  0  0  0  0  0  0  0  0
    3.3523   -1.1104    0.0000 C   0  0  0  0  0  0  0  0  0  0  0  0
    2.6378   -1.5229    0.0000 C   0  0  0  0  0  0  0  0  0  0  0  0
    1.9233   -1.1104    0.0000 C   0  0  0  0  0  0  0  0  0  0  0  0
  1  2  2  0  0  0  0
  2  3  1  0  0  0  0
  3  4  1  0  0  0  0
  4  5  4  0  0  0  0
  5  6  4  0  0  0  0
  6  7  4  0  0  0  0
  7  8  1  0  0  0  0
  8  9  1  0  0  0  0
  9 10  4  0  0  0  0
 10 11  4  0  0  0  0
 11 12  4  0  0  0  0
 12 13  4  0  0  0  0
 13 14  4  0  0  0  0
  9 14  4  0  0  0  0
  7 15  4  0  0  0  0
 15 16  4  0  0  0  0
  4 16  4  0  0  0  0
  2 17  1  0  0  0  0
 17 18  4  0  0  0  0
 18 19  1  0  0  0  0
 18 20  4  0  0  0  0
 20 21  4  0  0  0  0
 21 22  4  0  0  0  0
 22 23  4  0  0  0  0
 23 24  4  0  0  0  0
 24 25  4  0  0  0  0
 25 26  4  0  0  0  0
 17 26  4  0  0  0  0
 21 26  4  0  0  0  0
M  END
> <IC50(uM)>
0.76

> <Outcome>
1.0

> <BindingDB ID>
50990478

> <BindingDB MonomerID>
50281167

> <BindingDB Ligand Name>
CHEMBL4175712

> <Curation/DataSource>
ChEMBL

> <Article DOI>
10.1021/acs.jmedchem.8b00373

> <PMID>
29939742

> <Patent Number>
?

> <Authors>
Sainas, S; Pippione, AC; Lupino, E; Giorgis, M; Circosta, P; Gaidano, V; Goyal, P; Bonanni, D; Rolando, B; Cignetti, A; Ducime, A; Andersson, M; J??rv??, M; Friemann, R; Piccinini, M; Ramondetti, C; Buccinn??, B; Al-Karadaghi, S; Boschi, D; Saglio, G; Lolli, ML

> <Link to Ligand in BindingDB>
http://www.bindingdb.org/bind/chemsearch/marvin/MolStructure.jsp?monomerid=50281167

> <Link to Ligand-Target Pair in BindingDB>
http://www.bindingdb.org/jsp/dbsearch/PrimarySearch_ki.jsp?energyterm=kJ/mole&tag=r21&monomerid=50281167&enzyme=Dihydroorotate+dehydrogenase&column=ki&startPg=0&Increment=50&submit=Search

> <PubChem CID>
145973351

> <PubChem SID>
104122871

$$$$

  Mrv2115 07222212352D          

 41 45  0  0  0  0            999 V2000
   -1.8659    1.4455    0.0000 C   0  0  0  0  0  0  0  0  0  0  0  0
   -2.6909    1.4455    0.0000 C   0  0  0  0  0  0  0  0  0  0  0  0
   -3.1034    0.7310    0.0000 O   0  0  0  0  0  0  0  0  0  0  0  0
   -2.6909    0.0165    0.0000 C   0  0  0  0  0  0  0  0  0  0  0  0
   -1.8659    0.0165    0.0000 C   0  0  0  0  0  0  0  0  0  0  0  0
   -1.4534   -0.6979    0.0000 C   0  0  0  0  0  0  0  0  0  0  0  0
   -0.6284   -0.6979    0.0000 N   0  0  0  0  0  0  0  0  0  0  0  0
   -0.1435   -1.3654    0.0000 N   0  0  0  0  0  0  0  0  0  0  0  0
    0.6411   -1.1104    0.0000 C   0  0  0  0  0  0  0  0  0  0  0  0
    0.6411   -0.2854    0.0000 N   0  0  0  0  0  0  0  0  0  0  0  0
   -0.1435   -0.0305    0.0000 C   0  0  0  0  0  0  0  0  0  0  0  0
   -0.3984    0.7541    0.0000 O   0  0  0  0  0  0  0  0  0  0  0  0
    1.3556    0.1271    0.0000 C   0  0  0  0  0  0  0  0  0  0  0  0
    2.0701   -0.2854    0.0000 C   0  0  0  0  0  0  0  0  0  0  0  0
    2.0701   -1.1104    0.0000 C   0  0  0  0  0  0  0  0  0  0  0  0
    1.3556   -1.5229    0.0000 C   0  0  0  0  0  0  0  0  0  0  0  0
   -1.8659   -1.4124    0.0000 C   0  0  0  0  0  0  0  0  0  0  0  0
   -1.4534   -2.1269    0.0000 F   0  0  0  0  0  0  0  0  0  0  0  0
   -2.6909   -1.4124    0.0000 C   0  0  0  0  0  0  0  0  0  0  0  0
   -3.1034   -0.6979    0.0000 C   0  0  0  0  0  0  0  0  0  0  0  0
   -3.9284   -0.6979    0.0000 C   0  0  0  0  0  0  0  0  0  0  0  0
   -4.3409   -1.4124    0.0000 O   0  0  0  0  0  0  0  0  0  0  0  0
   -4.3409    0.0165    0.0000 N   0  0  0  0  0  0  0  0  0  0  0  0
   -5.1659    0.0165    0.0000 C   0  0  0  0  0  0  0  0  0  0  0  0
   -5.5784   -0.6979    0.0000 C   0  0  0  0  0  0  0  0  0  0  0  0
   -6.4034   -0.6979    0.0000 C   0  0  0  0  0  0  0  0  0  0  0  0
   -6.8159    0.0165    0.0000 C   0  0  0  0  0  0  0  0  0  0  0  0
   -6.4034    0.7310    0.0000 C   0  0  0  0  0  0  0  0  0  0  0  0
   -6.8159    1.4455    0.0000 C   0  0  0  0  0  0  0  0  0  0  0  0
   -7.2284    2.1599    0.0000 F   0  0  0  0  0  0  0  0  0  0  0  0
   -6.1015    1.8580    0.0000 F   0  0  0  0  0  0  0  0  0  0  0  0
   -7.5304    1.0330    0.0000 F   0  0  0  0  0  0  0  0  0  0  0  0
   -5.5784    0.7310    0.0000 C   0  0  0  0  0  0  0  0  0  0  0  0
   -5.1659    1.4455    0.0000 C   0  0  0  0  0  0  0  0  0  0  0  0
   -4.3409    1.4455    0.0000 O   0  0  0  0  0  0  0  0  0  0  0  0
   -3.1034    2.1599    0.0000 C   0  0  0  0  0  0  0  0  0  0  0  0
   -3.9284    2.1599    0.0000 C   0  0  0  0  0  0  0  0  0  0  0  0
   -4.3409    2.8744    0.0000 C   0  0  0  0  0  0  0  0  0  0  0  0
   -3.9284    3.5889    0.0000 C   0  0  0  0  0  0  0  0  0  0  0  0
   -3.1034    3.5889    0.0000 C   0  0  0  0  0  0  0  0  0  0  0  0
   -2.6909    2.8744    0.0000 C   0  0  0  0  0  0  0  0  0  0  0  0
  1  2  1  0  0  0  0
  2  3  1  0  0  0  0
  3  4  1  0  0  0  0
  4  5  4  0  0  0  0
  5  6  4  0  0  0  0
  6  7  1  0  0  0  0
  7  8  4  0  0  0  0
  8  9  4  0  0  0  0
  9 10  4  0  0  0  0
 10 11  4  0  0  0  0
  7 11  4  0  0  0  0
 11 12  2  0  0  0  0
 10 13  1  0  0  0  0
 13 14  1  0  0  0  0
 14 15  1  0  0  0  0
 15 16  1  0  0  0  0
  9 16  1  0  0  0  0
  6 17  4  0  0  0  0
 17 18  1  0  0  0  0
 17 19  4  0  0  0  0
 19 20  4  0  0  0  0
  4 20  4  0  0  0  0
 20 21  1  0  0  0  0
 21 22  2  0  0  0  0
 21 23  1  0  0  0  0
 23 24  1  0  0  0  0
 24 25  4  0  0  0  0
 25 26  4  0  0  0  0
 26 27  4  0  0  0  0
 27 28  4  0  0  0  0
 28 29  1  0  0  0  0
 29 30  1  0  0  0  0
 29 31  1  0  0  0  0
 29 32  1  0  0  0  0
 28 33  4  0  0  0  0
 24 33  4  0  0  0  0
 33 34  1  0  0  0  0
 34 35  1  0  0  0  0
  2 36  1  0  0  0  0
 36 37  1  0  0  0  0
 37 38  1  0  0  0  0
 38 39  1  0  0  0  0
 39 40  1  0  0  0  0
 40 41  1  0  0  0  0
 36 41  1  0  0  0  0
M  END
> <IC50(uM)>
0.09

> <Outcome>
1.0

> <BindingDB ID>
1020570

> <BindingDB MonomerID>
490509

> <BindingDB Ligand Name>
2-[(1S)-1-cyclohexylethoxy]-5-fluoro-N-[2-(hydroxymethyl)-3-(trifluoromethyl)phenyl]-4-(3-oxo-5,6,7,8-tetrahydro[1,2,4]triazolo[4,3-a]pyridin-2(3H)-yl)benzamide::US10968216, Example 177

> <Curation/DataSource>
US Patent

> <Article DOI>
?

> <PMID>
?

> <Patent Number>
US10968216

> <Authors>
Gradl, SN; Nguyen, D; Eis, K; Gunther, J; Stellfeld, T; Janzer, A; Christian, S; Mueller, T; Sheikh, SE; Zhou, HJ; Zhao, C; Sykes, DB; Ferrara, SJ; Liu, K; Herbert, SA; Merz, C; Niehues, M; Nising, CF; Schafer, M; Zimmermann, K; Knablein, J; Thede, K; Faupel, T

> <Link to Ligand in BindingDB>
http://www.bindingdb.org/bind/chemsearch/marvin/MolStructure.jsp?monomerid=490509

> <Link to Ligand-Target Pair in BindingDB>
http://www.bindingdb.org/jsp/dbsearch/PrimarySearch_ki.jsp?energyterm=kJ/mole&tag=r21&monomerid=490509&enzyme=Dihydroorotate+dehydrogenase&column=ki&startPg=0&Increment=50&submit=Search

> <PubChem CID>
142335889

> <PubChem SID>
447117236

$$$$

  Mrv2115 07222212352D          

 18 19  0  0  0  0            999 V2000
    2.1434   -1.2375    0.0000 O   0  0  0  0  0  0  0  0  0  0  0  0
    1.4289   -1.6500    0.0000 C   0  0  0  0  0  0  0  0  0  0  0  0
    1.4289   -2.4750    0.0000 C   0  0  0  0  0  0  0  0  0  0  0  0
    2.1434   -2.8875    0.0000 C   0  0  0  0  0  0  0  0  0  0  0  0
    2.1434   -3.7125    0.0000 C   0  0  0  0  0  0  0  0  0  0  0  0
    2.8579   -4.1250    0.0000 C   0  0  0  0  0  0  0  0  0  0  0  0
    2.8579   -4.9500    0.0000 C   0  0  0  0  0  0  0  0  0  0  0  0
    2.1434   -5.3625    0.0000 C   0  0  0  0  0  0  0  0  0  0  0  0
    2.1434   -6.1875    0.0000 F   0  0  0  0  0  0  0  0  0  0  0  0
    1.4289   -4.9500    0.0000 C   0  0  0  0  0  0  0  0  0  0  0  0
    1.4289   -4.1250    0.0000 C   0  0  0  0  0  0  0  0  0  0  0  0
    0.7145   -1.2375    0.0000 N   0  0  0  0  0  0  0  0  0  0  0  0
    0.7145   -0.4125    0.0000 C   0  0  0  0  0  0  0  0  0  0  0  0
    0.0000    0.0000    0.0000 C   0  0  0  0  0  0  0  0  0  0  0  0
    0.0000    0.8250    0.0000 C   0  0  0  0  0  0  0  0  0  0  0  0
    0.7145    1.2375    0.0000 C   0  0  0  0  0  0  0  0  0  0  0  0
    1.4289    0.8250    0.0000 C   0  0  0  0  0  0  0  0  0  0  0  0
    1.4289    0.0000    0.0000 N   0  0  0  0  0  0  0  0  0  0  0  0
  1  2  2  0  0  0  0
  2  3  1  0  0  0  0
  3  4  2  0  0  0  0
  4  5  1  0  0  0  0
  5  6  4  0  0  0  0
  6  7  4  0  0  0  0
  7  8  4  0  0  0  0
  8  9  1  0  0  0  0
  8 10  4  0  0  0  0
 10 11  4  0  0  0  0
  5 11  4  0  0  0  0
  2 12  1  0  0  0  0
 12 13  1  0  0  0  0
 13 14  4  0  0  0  0
 14 15  4  0  0  0  0
 15 16  4  0  0  0  0
 16 17  4  0  0  0  0
 17 18  4  0  0  0  0
 13 18  4  0  0  0  0
M  END
> <IC50(uM)>
13.01

> <Outcome>
0.0

> <BindingDB ID>
50971929

> <BindingDB MonomerID>
50398637

> <BindingDB Ligand Name>
CHEMBL2177491

> <Curation/DataSource>
ChEMBL

> <Article DOI>
10.1021/jm300630p

> <PMID>
22984987

> <Patent Number>
?

> <Authors>
Diao, Y; Lu, W; Jin, H; Zhu, J; Han, L; Xu, M; Gao, R; Shen, X; Zhao, Z; Liu, X; Xu, Y; Huang, J; Li, H

> <Link to Ligand in BindingDB>
http://www.bindingdb.org/bind/chemsearch/marvin/MolStructure.jsp?monomerid=50398637

> <Link to Ligand-Target Pair in BindingDB>
http://www.bindingdb.org/jsp/dbsearch/PrimarySearch_ki.jsp?energyterm=kJ/mole&tag=r21&monomerid=50398637&enzyme=Dihydroorotate+dehydrogenase&column=ki&startPg=0&Increment=50&submit=Search

> <PubChem CID>
673239

> <PubChem SID>
163347661

$$$$

  Mrv2115 07222212352D          

 35 37  0  0  0  0            999 V2000
    4.2868   -2.4750    0.0000 C   0  0  0  0  0  0  0  0  0  0  0  0
    3.5724   -2.8875    0.0000 C   0  0  0  0  0  0  0  0  0  0  0  0
    2.8579   -2.4750    0.0000 O   0  0  0  0  0  0  0  0  0  0  0  0
    2.1434   -2.8875    0.0000 C   0  0  0  0  0  0  0  0  0  0  0  0
    2.1434   -3.7125    0.0000 C   0  0  0  0  0  0  0  0  0  0  0  0
    1.4289   -4.1250    0.0000 C   0  0  0  0  0  0  0  0  0  0  0  0
    1.4289   -4.9500    0.0000 N   0  0  0  0  0  0  0  0  0  0  0  0
    2.0964   -5.4349    0.0000 N   0  0  0  0  0  0  0  0  0  0  0  0
    1.8414   -6.2195    0.0000 C   0  0  0  0  0  0  0  0  0  0  0  0
    2.3264   -6.8870    0.0000 C   0  0  0  0  0  0  0  0  0  0  0  0
    1.9908   -7.6407    0.0000 O   0  0  0  0  0  0  0  0  0  0  0  0
    3.1468   -6.8007    0.0000 O   0  0  0  0  0  0  0  0  0  0  0  0
    1.0164   -6.2195    0.0000 N   0  0  0  0  0  0  0  0  0  0  0  0
    0.5315   -6.8870    0.0000 C   0  0  0  0  0  0  0  0  0  0  0  0
    0.7615   -5.4349    0.0000 C   0  0  0  0  0  0  0  0  0  0  0  0
   -0.0231   -5.1800    0.0000 O   0  0  0  0  0  0  0  0  0  0  0  0
    0.7145   -3.7125    0.0000 C   0  0  0  0  0  0  0  0  0  0  0  0
    0.0000   -4.1250    0.0000 F   0  0  0  0  0  0  0  0  0  0  0  0
    0.7145   -2.8875    0.0000 C   0  0  0  0  0  0  0  0  0  0  0  0
    1.4289   -2.4750    0.0000 C   0  0  0  0  0  0  0  0  0  0  0  0
    1.4289   -1.6500    0.0000 C   0  0  0  0  0  0  0  0  0  0  0  0
    2.1434   -1.2375    0.0000 O   0  0  0  0  0  0  0  0  0  0  0  0
    0.7145   -1.2375    0.0000 N   0  0  0  0  0  0  0  0  0  0  0  0
    0.7145   -0.4125    0.0000 C   0  0  0  0  0  0  0  0  0  0  0  0
    0.0000    0.0000    0.0000 C   0  0  0  0  0  0  0  0  0  0  0  0
   -0.7145   -0.4125    0.0000 F   0  0  0  0  0  0  0  0  0  0  0  0
    0.0000    0.8250    0.0000 C   0  0  0  0  0  0  0  0  0  0  0  0
    0.7145    1.2375    0.0000 C   0  0  0  0  0  0  0  0  0  0  0  0
    1.4289    0.8250    0.0000 C   0  0  0  0  0  0  0  0  0  0  0  0
    1.4289    0.0000    0.0000 C   0  0  0  0  0  0  0  0  0  0  0  0
    2.1434   -0.4125    0.0000 Cl  0  0  0  0  0  0  0  0  0  0  0  0
    3.5724   -3.7125    0.0000 C   0  0  0  0  0  0  0  0  0  0  0  0
    2.7474   -3.7125    0.0000 F   0  0  0  0  0  0  0  0  0  0  0  0
    4.3974   -3.7125    0.0000 F   0  0  0  0  0  0  0  0  0  0  0  0
    3.5724   -4.5375    0.0000 F   0  0  0  0  0  0  0  0  0  0  0  0
  1  2  1  0  0  0  0
  2  3  1  0  0  0  0
  3  4  1  0  0  0  0
  4  5  4  0  0  0  0
  5  6  4  0  0  0  0
  6  7  1  0  0  0  0
  7  8  4  0  0  0  0
  8  9  4  0  0  0  0
  9 10  1  0  0  0  0
 10 11  2  0  0  0  0
 10 12  1  0  0  0  0
  9 13  4  0  0  0  0
 13 14  1  0  0  0  0
 13 15  4  0  0  0  0
  7 15  4  0  0  0  0
 15 16  2  0  0  0  0
  6 17  4  0  0  0  0
 17 18  1  0  0  0  0
 17 19  4  0  0  0  0
 19 20  4  0  0  0  0
  4 20  4  0  0  0  0
 20 21  1  0  0  0  0
 21 22  2  0  0  0  0
 21 23  1  0  0  0  0
 23 24  1  0  0  0  0
 24 25  4  0  0  0  0
 25 26  1  0  0  0  0
 25 27  4  0  0  0  0
 27 28  4  0  0  0  0
 28 29  4  0  0  0  0
 29 30  4  0  0  0  0
 24 30  4  0  0  0  0
 30 31  1  0  0  0  0
  2 32  1  0  0  0  0
 32 33  1  0  0  0  0
 32 34  1  0  0  0  0
 32 35  1  0  0  0  0
M  END
> <IC50(uM)>
0.0065

> <Outcome>
1.0

> <BindingDB ID>
1098834; 972680

> <BindingDB MonomerID>
470558

> <BindingDB Ligand Name>
1-(4-[(2-chloro-6-fluorophenyl)carbamoyl]-2-fluoro-5-{[(2S)-1,1,1-trifluoropropan-2-yl]oxy}phenyl)-4-methyl-5-oxo-4,5-dihydro-1H-1,2,4-triazole-3-carboxylic acid::US10815215, Example 218::US11130745, Example 218; 1-(4-[(2-chloro-6-fluorophenyl)carbamoyl]-2-fluoro-5-{[(2S)-1,1,1-trifluoropropan-2-yl]oxy}phenyl)-4-methyl-5-oxo-4,5-dihydro-1H-1,2,4-triazole-3-carboxylic acid::US10815215, Example 218

> <Curation/DataSource>
US Patent

> <Article DOI>
?

> <PMID>
?

> <Patent Number>
US11130745; US10815215

> <Authors>
Gradl, SN; Nguyen, D; Eis, K; Gunther, J; Stellfeld, T; Janzer, A; Christian, S; Muller, T; Sheikh, SE; Sykes, DB; Ferrara, SJ; Krober, M; Merz, C; Niehues, M; Schafer, M; Zimmermann, K; Nising, CF; Gradl, SN; Nguyen, D; Eis, K; Gunther, J; Stellfeld, T; Janzer, A; Christian, S; Muller, T; Sheikh, SE; Zhou, HJ; Zhao, C; Sykes, DB; Ferrara, SJ; Liu, K; Krober, M; Merz, C; Niehues, M; Schafer, M; Zimmermann, K; Nising, CF

> <Link to Ligand in BindingDB>
http://www.bindingdb.org/bind/chemsearch/marvin/MolStructure.jsp?monomerid=470558

> <Link to Ligand-Target Pair in BindingDB>
http://www.bindingdb.org/jsp/dbsearch/PrimarySearch_ki.jsp?energyterm=kJ/mole&tag=r21&monomerid=470558&enzyme=Dihydroorotate+dehydrogenase&column=ki&startPg=0&Increment=50&submit=Search

> <PubChem CID>
134470430

> <PubChem SID>
441609734

$$$$

  Mrv2115 07222212352D          

 40 44  0  0  0  0            999 V2000
   -1.8659    1.4455    0.0000 C   0  0  0  0  0  0  0  0  0  0  0  0
   -2.6909    1.4455    0.0000 C   0  0  0  0  0  0  0  0  0  0  0  0
   -3.1034    0.7310    0.0000 O   0  0  0  0  0  0  0  0  0  0  0  0
   -2.6909    0.0165    0.0000 C   0  0  0  0  0  0  0  0  0  0  0  0
   -1.8659    0.0165    0.0000 C   0  0  0  0  0  0  0  0  0  0  0  0
   -1.4534   -0.6979    0.0000 C   0  0  0  0  0  0  0  0  0  0  0  0
   -0.6284   -0.6979    0.0000 N   0  0  0  0  0  0  0  0  0  0  0  0
   -0.1435   -1.3654    0.0000 N   0  0  0  0  0  0  0  0  0  0  0  0
    0.6411   -1.1104    0.0000 C   0  0  0  0  0  0  0  0  0  0  0  0
    0.6411   -0.2854    0.0000 N   0  0  0  0  0  0  0  0  0  0  0  0
   -0.1435   -0.0305    0.0000 C   0  0  0  0  0  0  0  0  0  0  0  0
   -0.3984    0.7541    0.0000 O   0  0  0  0  0  0  0  0  0  0  0  0
    1.3556    0.1271    0.0000 C   0  0  0  0  0  0  0  0  0  0  0  0
    2.0701   -0.2854    0.0000 C   0  0  0  0  0  0  0  0  0  0  0  0
    2.0701   -1.1104    0.0000 C   0  0  0  0  0  0  0  0  0  0  0  0
    1.3556   -1.5229    0.0000 C   0  0  0  0  0  0  0  0  0  0  0  0
   -1.8659   -1.4124    0.0000 C   0  0  0  0  0  0  0  0  0  0  0  0
   -1.4534   -2.1269    0.0000 F   0  0  0  0  0  0  0  0  0  0  0  0
   -2.6909   -1.4124    0.0000 C   0  0  0  0  0  0  0  0  0  0  0  0
   -3.1034   -0.6979    0.0000 C   0  0  0  0  0  0  0  0  0  0  0  0
   -3.9284   -0.6979    0.0000 C   0  0  0  0  0  0  0  0  0  0  0  0
   -4.3409    0.0165    0.0000 O   0  0  0  0  0  0  0  0  0  0  0  0
   -4.3409   -1.4124    0.0000 N   0  0  0  0  0  0  0  0  0  0  0  0
   -5.1659   -1.4124    0.0000 C   0  0  0  0  0  0  0  0  0  0  0  0
   -5.5784   -0.6979    0.0000 C   0  0  0  0  0  0  0  0  0  0  0  0
   -5.1659    0.0165    0.0000 F   0  0  0  0  0  0  0  0  0  0  0  0
   -6.4034   -0.6979    0.0000 C   0  0  0  0  0  0  0  0  0  0  0  0
   -6.8159   -1.4124    0.0000 C   0  0  0  0  0  0  0  0  0  0  0  0
   -6.4034   -2.1269    0.0000 C   0  0  0  0  0  0  0  0  0  0  0  0
   -5.5784   -2.1269    0.0000 C   0  0  0  0  0  0  0  0  0  0  0  0
   -5.1659   -2.8414    0.0000 C   0  0  0  0  0  0  0  0  0  0  0  0
   -4.7534   -3.5558    0.0000 F   0  0  0  0  0  0  0  0  0  0  0  0
   -5.8804   -3.2539    0.0000 F   0  0  0  0  0  0  0  0  0  0  0  0
   -4.4515   -2.4289    0.0000 F   0  0  0  0  0  0  0  0  0  0  0  0
   -3.1034    2.1599    0.0000 C   0  0  0  0  0  0  0  0  0  0  0  0
   -3.9284    2.1599    0.0000 C   0  0  0  0  0  0  0  0  0  0  0  0
   -4.3409    2.8744    0.0000 C   0  0  0  0  0  0  0  0  0  0  0  0
   -3.9284    3.5889    0.0000 C   0  0  0  0  0  0  0  0  0  0  0  0
   -3.1034    3.5889    0.0000 C   0  0  0  0  0  0  0  0  0  0  0  0
   -2.6909    2.8744    0.0000 C   0  0  0  0  0  0  0  0  0  0  0  0
  1  2  1  0  0  0  0
  2  3  1  0  0  0  0
  3  4  1  0  0  0  0
  4  5  4  0  0  0  0
  5  6  4  0  0  0  0
  6  7  1  0  0  0  0
  7  8  4  0  0  0  0
  8  9  4  0  0  0  0
  9 10  4  0  0  0  0
 10 11  4  0  0  0  0
  7 11  4  0  0  0  0
 11 12  2  0  0  0  0
 10 13  1  0  0  0  0
 13 14  1  0  0  0  0
 14 15  1  0  0  0  0
 15 16  1  0  0  0  0
  9 16  1  0  0  0  0
  6 17  4  0  0  0  0
 17 18  1  0  0  0  0
 17 19  4  0  0  0  0
 19 20  4  0  0  0  0
  4 20  4  0  0  0  0
 20 21  1  0  0  0  0
 21 22  2  0  0  0  0
 21 23  1  0  0  0  0
 23 24  1  0  0  0  0
 24 25  4  0  0  0  0
 25 26  1  0  0  0  0
 25 27  4  0  0  0  0
 27 28  4  0  0  0  0
 28 29  4  0  0  0  0
 29 30  4  0  0  0  0
 24 30  4  0  0  0  0
 30 31  1  0  0  0  0
 31 32  1  0  0  0  0
 31 33  1  0  0  0  0
 31 34  1  0  0  0  0
  2 35  1  0  0  0  0
 35 36  1  0  0  0  0
 36 37  1  0  0  0  0
 37 38  1  0  0  0  0
 38 39  1  0  0  0  0
 39 40  1  0  0  0  0
 35 40  1  0  0  0  0
M  END
> <IC50(uM)>
0.036

> <Outcome>
1.0

> <BindingDB ID>
1020554

> <BindingDB MonomerID>
490493

> <BindingDB Ligand Name>
2-[(1S)-1-cyclohexylethoxy]-5-fluoro-N-[2-fluoro-6-(trifluoromethyl)phenyl]-4-(3-oxo-5,6,7,8-tetrahydro[1,2,4]triazolo[4,3-a]pyridin-2(3H)-yl)benzamide::US10968216, Example 161

> <Curation/DataSource>
US Patent

> <Article DOI>
?

> <PMID>
?

> <Patent Number>
US10968216

> <Authors>
Gradl, SN; Nguyen, D; Eis, K; Gunther, J; Stellfeld, T; Janzer, A; Christian, S; Mueller, T; Sheikh, SE; Zhou, HJ; Zhao, C; Sykes, DB; Ferrara, SJ; Liu, K; Herbert, SA; Merz, C; Niehues, M; Nising, CF; Schafer, M; Zimmermann, K; Knablein, J; Thede, K; Faupel, T

> <Link to Ligand in BindingDB>
http://www.bindingdb.org/bind/chemsearch/marvin/MolStructure.jsp?monomerid=490493

> <Link to Ligand-Target Pair in BindingDB>
http://www.bindingdb.org/jsp/dbsearch/PrimarySearch_ki.jsp?energyterm=kJ/mole&tag=r21&monomerid=490493&enzyme=Dihydroorotate+dehydrogenase&column=ki&startPg=0&Increment=50&submit=Search

> <PubChem CID>
153291221

> <PubChem SID>
447117220

$$$$

  Mrv2115 07222212352D          

 33 36  0  0  0  0            999 V2000
    0.7145   -2.8875    0.0000 C   0  0  0  0  0  0  0  0  0  0  0  0
    0.0000   -2.4750    0.0000 C   0  0  0  0  0  0  0  0  0  0  0  0
   -0.7145   -2.8875    0.0000 C   0  0  0  0  0  0  0  0  0  0  0  0
   -1.4289   -2.4750    0.0000 C   0  0  0  0  0  0  0  0  0  0  0  0
   -1.4289   -1.6500    0.0000 N   0  0  0  0  0  0  0  0  0  0  0  0
   -0.7145   -1.2375    0.0000 C   0  0  0  0  0  0  0  0  0  0  0  0
   -0.7145   -0.4125    0.0000 Cl  0  0  0  0  0  0  0  0  0  0  0  0
    0.0000   -1.6500    0.0000 C   0  0  0  0  0  0  0  0  0  0  0  0
    0.7145   -1.2375    0.0000 N   0  0  0  0  0  0  0  0  0  0  0  0
    0.7145   -0.4125    0.0000 C   0  0  0  0  0  0  0  0  0  0  0  0
    1.4289    0.0000    0.0000 C   0  0  0  0  0  0  0  0  0  0  0  0
    1.4289    0.8250    0.0000 C   0  0  0  0  0  0  0  0  0  0  0  0
    2.1434    1.2375    0.0000 C   0  0  0  0  0  0  0  0  0  0  0  0
    0.7145    1.2375    0.0000 C   0  0  0  0  0  0  0  0  0  0  0  0
    2.1434   -0.4125    0.0000 C   0  0  0  0  0  0  0  0  0  0  0  0
    2.8579    0.0000    0.0000 C   0  0  0  0  0  0  0  0  0  0  0  0
    3.5724   -0.4125    0.0000 C   0  0  0  0  0  0  0  0  0  0  0  0
    4.2868   -0.0000    0.0000 C   0  0  0  0  0  0  0  0  0  0  0  0
    4.3731    0.8205    0.0000 N   0  0  0  0  0  0  0  0  0  0  0  0
    5.1800    0.9920    0.0000 C   0  0  0  0  0  0  0  0  0  0  0  0
    5.5156    1.7457    0.0000 C   0  0  0  0  0  0  0  0  0  0  0  0
    5.8511    2.4994    0.0000 C   0  0  0  0  0  0  0  0  0  0  0  0
    6.2693    1.4101    0.0000 C   0  0  0  0  0  0  0  0  0  0  0  0
    4.7619    2.0812    0.0000 O   0  0  0  0  0  0  0  0  0  0  0  0
    5.5925    0.2775    0.0000 N   0  0  0  0  0  0  0  0  0  0  0  0
    6.4130    0.1913    0.0000 C   0  0  0  0  0  0  0  0  0  0  0  0
    5.0405   -0.3356    0.0000 N   0  0  0  0  0  0  0  0  0  0  0  0
    3.5724   -1.2375    0.0000 C   0  0  0  0  0  0  0  0  0  0  0  0
    4.2868   -1.6500    0.0000 F   0  0  0  0  0  0  0  0  0  0  0  0
    2.8579   -1.6500    0.0000 C   0  0  0  0  0  0  0  0  0  0  0  0
    2.1434   -1.2375    0.0000 C   0  0  0  0  0  0  0  0  0  0  0  0
    1.4289   -1.6500    0.0000 C   0  0  0  0  0  0  0  0  0  0  0  0
    1.4289   -2.4750    0.0000 O   0  0  0  0  0  0  0  0  0  0  0  0
  1  2  1  0  0  0  0
  2  3  4  0  0  0  0
  3  4  4  0  0  0  0
  4  5  4  0  0  0  0
  5  6  4  0  0  0  0
  6  7  1  0  0  0  0
  6  8  4  0  0  0  0
  2  8  4  0  0  0  0
  8  9  1  0  0  0  0
  9 10  4  0  0  0  0
 10 11  4  0  0  0  0
 11 12  1  0  0  0  0
 12 13  1  0  0  0  0
 12 14  1  0  0  0  0
 11 15  4  0  0  0  0
 15 16  4  0  0  0  0
 16 17  4  0  0  0  0
 17 18  1  0  0  0  0
 18 19  4  0  0  0  0
 19 20  4  0  0  0  0
 20 21  1  0  0  0  0
 21 22  1  0  0  0  0
 21 23  1  0  0  0  0
 21 24  1  0  0  0  0
 20 25  4  0  0  0  0
 25 26  1  0  0  0  0
 25 27  4  0  0  0  0
 18 27  4  0  0  0  0
 17 28  4  0  0  0  0
 28 29  1  0  0  0  0
 28 30  4  0  0  0  0
 30 31  4  0  0  0  0
 15 31  4  0  0  0  0
 31 32  4  0  0  0  0
  9 32  4  0  0  0  0
 32 33  2  0  0  0  0
M  END
> <IC50(uM)>
0.0024999999999999996

> <Outcome>
1.0

> <BindingDB ID>
1121381

> <BindingDB MonomerID>
530447

> <BindingDB Ligand Name>
2-(2-Chloro-4-methylpyridin-3-yl)-7-fluoro-6-(5-(2-hydroxypropan-2-yl)-1-methyl- 1H-1,2,4-triazol-3-yl)-4-isopropylisoquinolin-1(2H)-one.::WO2022070068, Example 19

> <Curation/DataSource>
Curated from the literature by BindingDB

> <Article DOI>
?

> <PMID>
WO2022070068

> <Patent Number>
?

> <Authors>
Lindsey, D; Scott, K; Zhuming, Z

> <Link to Ligand in BindingDB>
http://www.bindingdb.org/bind/chemsearch/marvin/MolStructure.jsp?monomerid=530447

> <Link to Ligand-Target Pair in BindingDB>
http://www.bindingdb.org/jsp/dbsearch/PrimarySearch_ki.jsp?energyterm=kJ/mole&tag=r21&monomerid=530447&enzyme=Dihydroorotate+dehydrogenase&column=ki&startPg=0&Increment=50&submit=Search

> <PubChem CID>
?

> <PubChem SID>
?

$$$$

  Mrv2115 07222212352D          

 34 37  0  0  0  0            999 V2000
   -5.1659    1.4455    0.0000 C   0  0  0  0  0  0  0  0  0  0  0  0
   -4.3409    1.4455    0.0000 C   0  0  0  0  0  0  0  0  0  0  0  0
   -3.9284    2.1599    0.0000 N   0  0  0  0  0  0  0  0  0  0  0  0
   -3.1034    2.1599    0.0000 C   0  0  0  0  0  0  0  0  0  0  0  0
   -2.6909    1.4455    0.0000 C   0  0  0  0  0  0  0  0  0  0  0  0
   -3.1034    0.7310    0.0000 C   0  0  0  0  0  0  0  0  0  0  0  0
   -3.9284    0.7310    0.0000 C   0  0  0  0  0  0  0  0  0  0  0  0
   -4.3409    0.0165    0.0000 N   0  0  0  0  0  0  0  0  0  0  0  0
   -3.9284   -0.6979    0.0000 C   0  0  0  0  0  0  0  0  0  0  0  0
   -4.3409   -1.4124    0.0000 O   0  0  0  0  0  0  0  0  0  0  0  0
   -3.1034   -0.6979    0.0000 C   0  0  0  0  0  0  0  0  0  0  0  0
   -2.6909    0.0165    0.0000 C   0  0  0  0  0  0  0  0  0  0  0  0
   -1.8659    0.0165    0.0000 C   0  0  0  0  0  0  0  0  0  0  0  0
   -1.4534    0.7310    0.0000 F   0  0  0  0  0  0  0  0  0  0  0  0
   -1.4534   -0.6979    0.0000 C   0  0  0  0  0  0  0  0  0  0  0  0
   -0.6284   -0.6979    0.0000 N   0  0  0  0  0  0  0  0  0  0  0  0
   -0.1435   -1.3654    0.0000 N   0  0  0  0  0  0  0  0  0  0  0  0
    0.6411   -1.1104    0.0000 C   0  0  0  0  0  0  0  0  0  0  0  0
    0.6411   -0.2854    0.0000 N   0  0  0  0  0  0  0  0  0  0  0  0
   -0.1435   -0.0305    0.0000 C   0  0  0  0  0  0  0  0  0  0  0  0
   -0.3984    0.7541    0.0000 O   0  0  0  0  0  0  0  0  0  0  0  0
    1.3556    0.1271    0.0000 C   0  0  0  0  0  0  0  0  0  0  0  0
    2.0701   -0.2854    0.0000 C   0  0  0  0  0  0  0  0  0  0  0  0
    2.0701   -1.1104    0.0000 C   0  0  0  0  0  0  0  0  0  0  0  0
    1.3556   -1.5229    0.0000 C   0  0  0  0  0  0  0  0  0  0  0  0
   -1.8659   -1.4124    0.0000 C   0  0  0  0  0  0  0  0  0  0  0  0
   -2.6909   -1.4124    0.0000 C   0  0  0  0  0  0  0  0  0  0  0  0
   -3.1034   -2.1269    0.0000 O   0  0  0  0  0  0  0  0  0  0  0  0
   -2.6909   -2.8414    0.0000 C   0  0  0  0  0  0  0  0  0  0  0  0
   -1.8659   -2.8414    0.0000 C   0  0  0  0  0  0  0  0  0  0  0  0
   -3.1034   -3.5558    0.0000 C   0  0  0  0  0  0  0  0  0  0  0  0
   -3.8179   -3.1433    0.0000 F   0  0  0  0  0  0  0  0  0  0  0  0
   -2.3890   -3.9683    0.0000 F   0  0  0  0  0  0  0  0  0  0  0  0
   -3.5159   -4.2703    0.0000 F   0  0  0  0  0  0  0  0  0  0  0  0
  1  2  1  0  0  0  0
  2  3  4  0  0  0  0
  3  4  4  0  0  0  0
  4  5  4  0  0  0  0
  5  6  4  0  0  0  0
  6  7  4  0  0  0  0
  2  7  4  0  0  0  0
  7  8  1  0  0  0  0
  8  9  1  0  0  0  0
  9 10  2  0  0  0  0
  9 11  1  0  0  0  0
 11 12  4  0  0  0  0
 12 13  4  0  0  0  0
 13 14  1  0  0  0  0
 13 15  4  0  0  0  0
 15 16  1  0  0  0  0
 16 17  4  0  0  0  0
 17 18  4  0  0  0  0
 18 19  4  0  0  0  0
 19 20  4  0  0  0  0
 16 20  4  0  0  0  0
 20 21  2  0  0  0  0
 19 22  1  0  0  0  0
 22 23  1  0  0  0  0
 23 24  1  0  0  0  0
 24 25  1  0  0  0  0
 18 25  1  0  0  0  0
 15 26  4  0  0  0  0
 26 27  4  0  0  0  0
 11 27  4  0  0  0  0
 27 28  1  0  0  0  0
 28 29  1  0  0  0  0
 29 30  1  0  0  0  0
 29 31  1  0  0  0  0
 31 32  1  0  0  0  0
 31 33  1  0  0  0  0
 31 34  1  0  0  0  0
M  END
> <IC50(uM)>
0.25

> <Outcome>
1.0

> <BindingDB ID>
1020475

> <BindingDB MonomerID>
490423

> <BindingDB Ligand Name>
5-fluoro-N-(2-methylpyridin-3-yl)-4-(3-oxo-5,6,7,8-tetrahydro[1,2,4]triazolo[4,3-a]pyridin-2(3H)-yl)-2-{[(2S)-1,1,1-trifluoropropan-2-yl]oxy}benzamide::US10968216, Example 91

> <Curation/DataSource>
US Patent

> <Article DOI>
?

> <PMID>
?

> <Patent Number>
US10968216

> <Authors>
Gradl, SN; Nguyen, D; Eis, K; Gunther, J; Stellfeld, T; Janzer, A; Christian, S; Mueller, T; Sheikh, SE; Zhou, HJ; Zhao, C; Sykes, DB; Ferrara, SJ; Liu, K; Herbert, SA; Merz, C; Niehues, M; Nising, CF; Schafer, M; Zimmermann, K; Knablein, J; Thede, K; Faupel, T

> <Link to Ligand in BindingDB>
http://www.bindingdb.org/bind/chemsearch/marvin/MolStructure.jsp?monomerid=490423

> <Link to Ligand-Target Pair in BindingDB>
http://www.bindingdb.org/jsp/dbsearch/PrimarySearch_ki.jsp?energyterm=kJ/mole&tag=r21&monomerid=490423&enzyme=Dihydroorotate+dehydrogenase&column=ki&startPg=0&Increment=50&submit=Search

> <PubChem CID>
142335860

> <PubChem SID>
447117150

$$$$

  Mrv2115 07222212352D          

 27 29  0  0  0  0            999 V2000
    2.1434   -2.8875    0.0000 C   0  0  0  0  0  0  0  0  0  0  0  0
    2.1434   -3.7125    0.0000 C   0  0  0  0  0  0  0  0  0  0  0  0
    1.4289   -4.1250    0.0000 C   0  0  0  0  0  0  0  0  0  0  0  0
    1.4289   -4.9500    0.0000 C   0  0  0  0  0  0  0  0  0  0  0  0
    2.1434   -5.3625    0.0000 C   0  0  0  0  0  0  0  0  0  0  0  0
    2.1434   -6.1875    0.0000 N   0  0  0  0  0  0  0  0  0  0  0  0
    1.4289   -6.6000    0.0000 C   0  0  0  0  0  0  0  0  0  0  0  0
    1.4289   -7.4250    0.0000 C   0  0  0  0  0  0  0  0  0  0  0  0
    0.7145   -7.8375    0.0000 C   0  0  0  0  0  0  0  0  0  0  0  0
    0.0000   -7.4250    0.0000 C   0  0  0  0  0  0  0  0  0  0  0  0
   -0.7145   -7.8375    0.0000 C   0  0  0  0  0  0  0  0  0  0  0  0
   -0.7145   -8.6625    0.0000 C   0  0  0  0  0  0  0  0  0  0  0  0
   -1.4289   -9.0750    0.0000 C   0  0  0  0  0  0  0  0  0  0  0  0
   -2.1434   -8.6625    0.0000 C   0  0  0  0  0  0  0  0  0  0  0  0
   -2.1434   -7.8375    0.0000 C   0  0  0  0  0  0  0  0  0  0  0  0
   -2.8579   -7.4250    0.0000 C   0  0  0  0  0  0  0  0  0  0  0  0
   -3.5724   -7.0125    0.0000 F   0  0  0  0  0  0  0  0  0  0  0  0
   -2.4454   -6.7105    0.0000 F   0  0  0  0  0  0  0  0  0  0  0  0
   -3.2704   -8.1395    0.0000 F   0  0  0  0  0  0  0  0  0  0  0  0
   -1.4289   -7.4250    0.0000 C   0  0  0  0  0  0  0  0  0  0  0  0
    0.0000   -6.6000    0.0000 N   0  0  0  0  0  0  0  0  0  0  0  0
    0.7145   -6.1875    0.0000 C   0  0  0  0  0  0  0  0  0  0  0  0
    2.8579   -4.9500    0.0000 C   0  0  0  0  0  0  0  0  0  0  0  0
    3.5724   -5.3625    0.0000 C   0  0  0  0  0  0  0  0  0  0  0  0
    4.2868   -4.9500    0.0000 O   0  0  0  0  0  0  0  0  0  0  0  0
    3.5724   -6.1875    0.0000 O   0  0  0  0  0  0  0  0  0  0  0  0
    2.8579   -4.1250    0.0000 C   0  0  0  0  0  0  0  0  0  0  0  0
  1  2  1  0  0  0  0
  2  3  4  0  0  0  0
  3  4  4  0  0  0  0
  4  5  4  0  0  0  0
  5  6  1  0  0  0  0
  6  7  1  0  0  0  0
  7  8  4  0  0  0  0
  8  9  4  0  0  0  0
  9 10  4  0  0  0  0
 10 11  1  0  0  0  0
 11 12  4  0  0  0  0
 12 13  4  0  0  0  0
 13 14  4  0  0  0  0
 14 15  4  0  0  0  0
 15 16  1  0  0  0  0
 16 17  1  0  0  0  0
 16 18  1  0  0  0  0
 16 19  1  0  0  0  0
 15 20  4  0  0  0  0
 11 20  4  0  0  0  0
 10 21  4  0  0  0  0
 21 22  4  0  0  0  0
  7 22  4  0  0  0  0
  5 23  4  0  0  0  0
 23 24  1  0  0  0  0
 24 25  2  0  0  0  0
 24 26  1  0  0  0  0
 23 27  4  0  0  0  0
  2 27  4  0  0  0  0
M  END
> <IC50(uM)>
0.098

> <Outcome>
1.0

> <BindingDB ID>
219977

> <BindingDB MonomerID>
102447

> <BindingDB Ligand Name>
US8536165, 4

> <Curation/DataSource>
US Patent

> <Article DOI>
?

> <PMID>
?

> <Patent Number>
US8536165

> <Authors>
Castro Palomino Laria, JC; Terricabras Belart, E; Erra Sola, M; Navarro Romero, E; Fonquerna Pou, S; Cardus Figueras, A; Lozoya Toribio, ME

> <Link to Ligand in BindingDB>
http://www.bindingdb.org/bind/chemsearch/marvin/MolStructure.jsp?monomerid=102447

> <Link to Ligand-Target Pair in BindingDB>
http://www.bindingdb.org/jsp/dbsearch/PrimarySearch_ki.jsp?energyterm=kJ/mole&tag=r21&monomerid=102447&enzyme=Dihydroorotate+dehydrogenase&column=ki&startPg=0&Increment=50&submit=Search

> <PubChem CID>
25186446

> <PubChem SID>
172097738

$$$$

  Mrv2115 07222212352D          

 25 28  0  0  0  0            999 V2000
    2.1434   -2.8875    0.0000 O   0  0  0  0  0  0  0  0  0  0  0  0
    1.4289   -2.4750    0.0000 C   0  0  0  0  0  0  0  0  0  0  0  0
    0.7145   -2.8875    0.0000 O   0  0  0  0  0  0  0  0  0  0  0  0
    1.4289   -1.6500    0.0000 C   0  0  0  0  0  0  0  0  0  0  0  0
    0.7145   -1.2375    0.0000 C   0  0  0  0  0  0  0  0  0  0  0  0
    0.7145   -0.4125    0.0000 C   0  0  0  0  0  0  0  0  0  0  0  0
    0.0000    0.0000    0.0000 C   0  0  0  0  0  0  0  0  0  0  0  0
   -0.7145   -0.4125    0.0000 C   0  0  0  0  0  0  0  0  0  0  0  0
   -1.4289    0.0000    0.0000 C   0  0  0  0  0  0  0  0  0  0  0  0
   -1.4289    0.8250    0.0000 C   0  0  0  0  0  0  0  0  0  0  0  0
   -2.1434    1.2375    0.0000 C   0  0  0  0  0  0  0  0  0  0  0  0
   -2.8579    0.8250    0.0000 N   0  0  0  0  0  0  0  0  0  0  0  0
   -3.5724    1.2375    0.0000 C   0  0  0  0  0  0  0  0  0  0  0  0
   -3.5724    2.0625    0.0000 C   0  0  0  0  0  0  0  0  0  0  0  0
   -2.8579    2.4750    0.0000 C   0  0  0  0  0  0  0  0  0  0  0  0
   -2.1434    2.0625    0.0000 N   0  0  0  0  0  0  0  0  0  0  0  0
   -0.7145    1.2375    0.0000 C   0  0  0  0  0  0  0  0  0  0  0  0
    0.0000    0.8250    0.0000 C   0  0  0  0  0  0  0  0  0  0  0  0
    1.4289    0.0000    0.0000 N   0  0  0  0  0  0  0  0  0  0  0  0
    2.1434   -0.4125    0.0000 C   0  0  0  0  0  0  0  0  0  0  0  0
    2.8579    0.0000    0.0000 C   0  0  0  0  0  0  0  0  0  0  0  0
    3.5724   -0.4125    0.0000 C   0  0  0  0  0  0  0  0  0  0  0  0
    3.5724   -1.2375    0.0000 C   0  0  0  0  0  0  0  0  0  0  0  0
    2.8579   -1.6500    0.0000 C   0  0  0  0  0  0  0  0  0  0  0  0
    2.1434   -1.2375    0.0000 C   0  0  0  0  0  0  0  0  0  0  0  0
  1  2  2  0  0  0  0
  2  3  1  0  0  0  0
  2  4  1  0  0  0  0
  4  5  4  0  0  0  0
  5  6  4  0  0  0  0
  6  7  1  0  0  0  0
  7  8  4  0  0  0  0
  8  9  4  0  0  0  0
  9 10  4  0  0  0  0
 10 11  1  0  0  0  0
 11 12  4  0  0  0  0
 12 13  4  0  0  0  0
 13 14  4  0  0  0  0
 14 15  4  0  0  0  0
 15 16  4  0  0  0  0
 11 16  4  0  0  0  0
 10 17  4  0  0  0  0
 17 18  4  0  0  0  0
  7 18  4  0  0  0  0
  6 19  4  0  0  0  0
 19 20  4  0  0  0  0
 20 21  4  0  0  0  0
 21 22  4  0  0  0  0
 22 23  4  0  0  0  0
 23 24  4  0  0  0  0
 24 25  4  0  0  0  0
  4 25  4  0  0  0  0
 20 25  4  0  0  0  0
M  END
> <IC50(uM)>
200.0

> <Outcome>
0.0

> <BindingDB ID>
51126182

> <BindingDB MonomerID>
50461869

> <BindingDB Ligand Name>
CHEMBL4227860

> <Curation/DataSource>
ChEMBL

> <Article DOI>
10.1021/acs.jmedchem.7b01862

> <PMID>
29727569

> <Patent Number>
?

> <Authors>
Madak, JT; Cuthbertson, CR; Miyata, Y; Tamura, S; Petrunak, EM; Stuckey, JA; Han, Y; He, M; Sun, D; Showalter, HD; Neamati, N

> <Link to Ligand in BindingDB>
http://www.bindingdb.org/bind/chemsearch/marvin/MolStructure.jsp?monomerid=50461869

> <Link to Ligand-Target Pair in BindingDB>
http://www.bindingdb.org/jsp/dbsearch/PrimarySearch_ki.jsp?energyterm=kJ/mole&tag=r21&monomerid=50461869&enzyme=Dihydroorotate+dehydrogenase&column=ki&startPg=0&Increment=50&submit=Search

> <PubChem CID>
145970439

> <PubChem SID>
433929134

$$$$

  Mrv2115 07222212352D          

 27 29  0  0  0  0            999 V2000
   -1.4289   12.1286    0.0000 C   0  0  0  0  0  0  0  0  0  0  0  0
   -0.7145   11.7161    0.0000 N   0  0  0  0  0  0  0  0  0  0  0  0
   -0.0000   12.1286    0.0000 C   0  0  0  0  0  0  0  0  0  0  0  0
   -0.7145   10.8911    0.0000 C   0  0  0  0  0  0  0  0  0  0  0  0
   -0.0000   10.4786    0.0000 C   0  0  0  0  0  0  0  0  0  0  0  0
   -0.0000    9.6536    0.0000 C   0  0  0  0  0  0  0  0  0  0  0  0
   -0.7145    9.2411    0.0000 C   0  0  0  0  0  0  0  0  0  0  0  0
   -0.7145    8.4161    0.0000 C   0  0  0  0  0  0  0  0  0  0  0  0
   -0.0000    8.0036    0.0000 C   0  0  0  0  0  0  0  0  0  0  0  0
   -0.0000    7.1786    0.0000 C   0  0  0  0  0  0  0  0  0  0  0  0
   -0.7145    6.7661    0.0000 C   0  0  0  0  0  0  0  0  0  0  0  0
   -0.7145    5.9411    0.0000 N   0  0  0  0  0  0  0  0  0  0  0  0
   -0.0000    5.5286    0.0000 C   0  0  0  0  0  0  0  0  0  0  0  0
    0.7145    5.9411    0.0000 O   0  0  0  0  0  0  0  0  0  0  0  0
   -0.0000    4.7036    0.0000 C   0  0  0  0  0  0  0  0  0  0  0  0
    0.6674    4.2187    0.0000 C   0  0  0  0  0  0  0  0  0  0  0  0
    1.4521    4.4736    0.0000 C   0  0  0  0  0  0  0  0  0  0  0  0
    1.6236    5.2806    0.0000 O   0  0  0  0  0  0  0  0  0  0  0  0
    2.0652    3.9216    0.0000 O   0  0  0  0  0  0  0  0  0  0  0  0
    0.4125    3.4340    0.0000 C   0  0  0  0  0  0  0  0  0  0  0  0
   -0.4125    3.4340    0.0000 C   0  0  0  0  0  0  0  0  0  0  0  0
   -0.6674    4.2187    0.0000 C   0  0  0  0  0  0  0  0  0  0  0  0
   -1.4289    7.1786    0.0000 C   0  0  0  0  0  0  0  0  0  0  0  0
   -1.4289    8.0036    0.0000 C   0  0  0  0  0  0  0  0  0  0  0  0
   -2.1434    8.4161    0.0000 Cl  0  0  0  0  0  0  0  0  0  0  0  0
   -1.4289    9.6536    0.0000 C   0  0  0  0  0  0  0  0  0  0  0  0
   -1.4289   10.4786    0.0000 C   0  0  0  0  0  0  0  0  0  0  0  0
  1  2  1  0  0  0  0
  2  3  1  0  0  0  0
  2  4  1  0  0  0  0
  4  5  4  0  0  0  0
  5  6  4  0  0  0  0
  6  7  4  0  0  0  0
  7  8  1  0  0  0  0
  8  9  4  0  0  0  0
  9 10  4  0  0  0  0
 10 11  4  0  0  0  0
 11 12  1  0  0  0  0
 12 13  1  0  0  0  0
 13 14  2  0  0  0  0
 13 15  1  0  0  0  0
 15 16  2  0  0  0  0
 16 17  1  0  0  0  0
 17 18  2  0  0  0  0
 17 19  1  0  0  0  0
 16 20  1  0  0  0  0
 20 21  1  0  0  0  0
 21 22  1  0  0  0  0
 15 22  1  0  0  0  0
 11 23  4  0  0  0  0
 23 24  4  0  0  0  0
  8 24  4  0  0  0  0
 24 25  1  0  0  0  0
  7 26  4  0  0  0  0
 26 27  4  0  0  0  0
  4 27  4  0  0  0  0
M  END
> <IC50(uM)>
0.05

> <Outcome>
1.0

> <BindingDB ID>
50251726

> <BindingDB MonomerID>
50137308

> <BindingDB Ligand Name>
2-(2-Chloro-4'-dimethylamino-biphenyl-4-ylcarbamoyl)-cyclopent-1-enecarboxylic acid::CHEMBL154151

> <Curation/DataSource>
ChEMBL

> <Article DOI>
10.1016/j.bmcl.2003.10.021

> <PMID>
14684297

> <Patent Number>
?

> <Authors>
Leban, J; Saeb, W; Garcia, G; Baumgartner, R; Kramer, B

> <Link to Ligand in BindingDB>
http://www.bindingdb.org/bind/chemsearch/marvin/MolStructure.jsp?monomerid=50137308

> <Link to Ligand-Target Pair in BindingDB>
http://www.bindingdb.org/jsp/dbsearch/PrimarySearch_ki.jsp?energyterm=kJ/mole&tag=r21&monomerid=50137308&enzyme=Dihydroorotate+dehydrogenase&column=ki&startPg=0&Increment=50&submit=Search

> <PubChem CID>
44369486

> <PubChem SID>
104027474

$$$$

  Mrv2115 07222212352D          

 32 35  0  0  0  0            999 V2000
    2.8579   -4.9500    0.0000 C   0  0  0  0  0  0  0  0  0  0  0  0
    2.8579   -4.1250    0.0000 O   0  0  0  0  0  0  0  0  0  0  0  0
    2.1434   -3.7125    0.0000 C   0  0  0  0  0  0  0  0  0  0  0  0
    1.4289   -4.1250    0.0000 O   0  0  0  0  0  0  0  0  0  0  0  0
    2.1434   -2.8875    0.0000 N   0  0  0  0  0  0  0  0  0  0  0  0
    1.4289   -2.4750    0.0000 C   0  0  0  0  0  0  0  0  0  0  0  0
    0.7145   -2.8875    0.0000 O   0  0  0  0  0  0  0  0  0  0  0  0
    1.4289   -1.6500    0.0000 C   0  0  0  0  0  0  0  0  0  0  0  0
    0.7145   -1.2375    0.0000 C   0  0  0  0  0  0  0  0  0  0  0  0
    0.0000   -1.6500    0.0000 C   0  0  0  0  0  0  0  0  0  0  0  0
    0.7145   -0.4125    0.0000 C   0  0  0  0  0  0  0  0  0  0  0  0
    0.0000    0.0000    0.0000 C   0  0  0  0  0  0  0  0  0  0  0  0
   -0.7145   -0.4125    0.0000 C   0  0  0  0  0  0  0  0  0  0  0  0
   -1.4289    0.0000    0.0000 C   0  0  0  0  0  0  0  0  0  0  0  0
   -1.4289    0.8250    0.0000 C   0  0  0  0  0  0  0  0  0  0  0  0
   -2.1434    1.2375    0.0000 C   0  0  0  0  0  0  0  0  0  0  0  0
   -2.8579    0.8250    0.0000 C   0  0  0  0  0  0  0  0  0  0  0  0
   -3.5724    1.2375    0.0000 C   0  0  0  0  0  0  0  0  0  0  0  0
   -3.5724    2.0625    0.0000 C   0  0  0  0  0  0  0  0  0  0  0  0
   -2.8579    2.4750    0.0000 C   0  0  0  0  0  0  0  0  0  0  0  0
   -2.1434    2.0625    0.0000 C   0  0  0  0  0  0  0  0  0  0  0  0
   -1.4289    2.4750    0.0000 F   0  0  0  0  0  0  0  0  0  0  0  0
   -0.7145    1.2375    0.0000 C   0  0  0  0  0  0  0  0  0  0  0  0
    0.0000    0.8250    0.0000 C   0  0  0  0  0  0  0  0  0  0  0  0
    1.4289    0.0000    0.0000 N   0  0  0  0  0  0  0  0  0  0  0  0
    2.1434   -0.4125    0.0000 C   0  0  0  0  0  0  0  0  0  0  0  0
    2.8579    0.0000    0.0000 C   0  0  0  0  0  0  0  0  0  0  0  0
    3.5724   -0.4125    0.0000 C   0  0  0  0  0  0  0  0  0  0  0  0
    3.5724   -1.2375    0.0000 C   0  0  0  0  0  0  0  0  0  0  0  0
    4.2868   -1.6500    0.0000 F   0  0  0  0  0  0  0  0  0  0  0  0
    2.8579   -1.6500    0.0000 C   0  0  0  0  0  0  0  0  0  0  0  0
    2.1434   -1.2375    0.0000 C   0  0  0  0  0  0  0  0  0  0  0  0
  1  2  1  0  0  0  0
  2  3  1  0  0  0  0
  3  4  2  0  0  0  0
  3  5  1  0  0  0  0
  5  6  1  0  0  0  0
  6  7  2  0  0  0  0
  6  8  1  0  0  0  0
  8  9  4  0  0  0  0
  9 10  1  0  0  0  0
  9 11  4  0  0  0  0
 11 12  1  0  0  0  0
 12 13  4  0  0  0  0
 13 14  4  0  0  0  0
 14 15  4  0  0  0  0
 15 16  1  0  0  0  0
 16 17  4  0  0  0  0
 17 18  4  0  0  0  0
 18 19  4  0  0  0  0
 19 20  4  0  0  0  0
 20 21  4  0  0  0  0
 16 21  4  0  0  0  0
 21 22  1  0  0  0  0
 15 23  4  0  0  0  0
 23 24  4  0  0  0  0
 12 24  4  0  0  0  0
 11 25  4  0  0  0  0
 25 26  4  0  0  0  0
 26 27  4  0  0  0  0
 27 28  4  0  0  0  0
 28 29  4  0  0  0  0
 29 30  1  0  0  0  0
 29 31  4  0  0  0  0
 31 32  4  0  0  0  0
  8 32  4  0  0  0  0
 26 32  4  0  0  0  0
M  END
> <IC50(uM)>
1.25

> <Outcome>
0.0

> <BindingDB ID>
51370195

> <BindingDB MonomerID>
50554023

> <BindingDB Ligand Name>
CHEMBL4758872

> <Curation/DataSource>
ChEMBL

> <Article DOI>
?

> <PMID>
33007394

> <Patent Number>
?

> <Authors>
DeRatt, LG; Christine Pietsch, E; Tanner, A; Shaffer, P; Jacoby, E; Wang, W; Kazmi, F; Zhang, X; Attar, RM; Edwards, JP; Kuduk, SD

> <Link to Ligand in BindingDB>
http://www.bindingdb.org/bind/chemsearch/marvin/MolStructure.jsp?monomerid=50554023

> <Link to Ligand-Target Pair in BindingDB>
http://www.bindingdb.org/jsp/dbsearch/PrimarySearch_ki.jsp?energyterm=kJ/mole&tag=r21&monomerid=50554023&enzyme=Dihydroorotate+dehydrogenase&column=ki&startPg=0&Increment=50&submit=Search

> <PubChem CID>
162657955

> <PubChem SID>
461692791

$$$$

  Mrv2115 07222212352D          

 36 38  0  0  0  0            999 V2000
    2.1434   -3.7125    0.0000 C   0  0  0  0  0  0  0  0  0  0  0  0
    1.4289   -4.1250    0.0000 C   0  0  0  0  0  0  0  0  0  0  0  0
    1.4289   -4.9500    0.0000 N   0  0  0  0  0  0  0  0  0  0  0  0
    0.7615   -5.4349    0.0000 C   0  0  0  0  0  0  0  0  0  0  0  0
   -0.0231   -5.1800    0.0000 C   0  0  0  0  0  0  0  0  0  0  0  0
   -0.1946   -4.3730    0.0000 O   0  0  0  0  0  0  0  0  0  0  0  0
   -0.6362   -5.7320    0.0000 O   0  0  0  0  0  0  0  0  0  0  0  0
    1.0164   -6.2195    0.0000 N   0  0  0  0  0  0  0  0  0  0  0  0
    1.8414   -6.2195    0.0000 N   0  0  0  0  0  0  0  0  0  0  0  0
    2.3264   -6.8870    0.0000 C   0  0  0  0  0  0  0  0  0  0  0  0
    3.1468   -6.8007    0.0000 C   0  0  0  0  0  0  0  0  0  0  0  0
    3.6318   -7.4682    0.0000 C   0  0  0  0  0  0  0  0  0  0  0  0
    4.4522   -7.3820    0.0000 O   0  0  0  0  0  0  0  0  0  0  0  0
    4.7878   -6.6283    0.0000 C   0  0  0  0  0  0  0  0  0  0  0  0
    4.3029   -5.9608    0.0000 C   0  0  0  0  0  0  0  0  0  0  0  0
    5.6083   -6.5420    0.0000 C   0  0  0  0  0  0  0  0  0  0  0  0
    5.6945   -7.3625    0.0000 F   0  0  0  0  0  0  0  0  0  0  0  0
    5.5221   -5.7216    0.0000 F   0  0  0  0  0  0  0  0  0  0  0  0
    6.4288   -6.4558    0.0000 F   0  0  0  0  0  0  0  0  0  0  0  0
    3.2962   -8.2219    0.0000 C   0  0  0  0  0  0  0  0  0  0  0  0
    3.7811   -8.8893    0.0000 C   0  0  0  0  0  0  0  0  0  0  0  0
    3.4456   -9.6430    0.0000 O   0  0  0  0  0  0  0  0  0  0  0  0
    4.6016   -8.8031    0.0000 N   0  0  0  0  0  0  0  0  0  0  0  0
    5.0865   -9.4705    0.0000 C   0  0  0  0  0  0  0  0  0  0  0  0
    5.9070   -9.3843    0.0000 C   0  0  0  0  0  0  0  0  0  0  0  0
    6.2426   -8.6306    0.0000 Cl  0  0  0  0  0  0  0  0  0  0  0  0
    6.3919  -10.0517    0.0000 C   0  0  0  0  0  0  0  0  0  0  0  0
    6.0564  -10.8054    0.0000 C   0  0  0  0  0  0  0  0  0  0  0  0
    5.2359  -10.8916    0.0000 C   0  0  0  0  0  0  0  0  0  0  0  0
    4.7510  -10.2242    0.0000 C   0  0  0  0  0  0  0  0  0  0  0  0
    3.9305  -10.3104    0.0000 Cl  0  0  0  0  0  0  0  0  0  0  0  0
    2.4757   -8.3081    0.0000 C   0  0  0  0  0  0  0  0  0  0  0  0
    1.9908   -7.6407    0.0000 C   0  0  0  0  0  0  0  0  0  0  0  0
    1.1703   -7.7269    0.0000 F   0  0  0  0  0  0  0  0  0  0  0  0
    2.0964   -5.4349    0.0000 C   0  0  0  0  0  0  0  0  0  0  0  0
    2.8810   -5.1800    0.0000 O   0  0  0  0  0  0  0  0  0  0  0  0
  1  2  1  0  0  0  0
  2  3  1  0  0  0  0
  3  4  4  0  0  0  0
  4  5  1  0  0  0  0
  5  6  2  0  0  0  0
  5  7  1  0  0  0  0
  4  8  4  0  0  0  0
  8  9  4  0  0  0  0
  9 10  1  0  0  0  0
 10 11  4  0  0  0  0
 11 12  4  0  0  0  0
 12 13  1  0  0  0  0
 13 14  1  0  0  0  0
 14 15  1  0  0  0  0
 14 16  1  0  0  0  0
 16 17  1  0  0  0  0
 16 18  1  0  0  0  0
 16 19  1  0  0  0  0
 12 20  4  0  0  0  0
 20 21  1  0  0  0  0
 21 22  2  0  0  0  0
 21 23  1  0  0  0  0
 23 24  1  0  0  0  0
 24 25  4  0  0  0  0
 25 26  1  0  0  0  0
 25 27  4  0  0  0  0
 27 28  4  0  0  0  0
 28 29  4  0  0  0  0
 29 30  4  0  0  0  0
 24 30  4  0  0  0  0
 30 31  1  0  0  0  0
 20 32  4  0  0  0  0
 32 33  4  0  0  0  0
 10 33  4  0  0  0  0
 33 34  1  0  0  0  0
  9 35  4  0  0  0  0
  3 35  4  0  0  0  0
 35 36  2  0  0  0  0
M  END
> <IC50(uM)>
0.0015

> <Outcome>
1.0

> <BindingDB ID>
1098831; 972677

> <BindingDB MonomerID>
470555

> <BindingDB Ligand Name>
1-(4-[(2,6-dichlorophenyl)carbamoyl]-2-fluoro-5-{[(2S)-1,1,1-trifluoropropan-2-yl]oxy}phenyl)-4-ethyl-5-oxo-4,5-dihydro-1H-1,2,4-triazole-3-carboxylic acid::US10815215, Example 215::US11130745, Example 215; 1-(4-[(2,6-dichlorophenyl)carbamoyl]-2-fluoro-5-{[(2S)-1,1,1-trifluoropropan-2-yl]oxy}phenyl)-4-ethyl-5-oxo-4,5-dihydro-1H-1,2,4-triazole-3-carboxylic acid::US10815215, Example 215

> <Curation/DataSource>
US Patent

> <Article DOI>
?

> <PMID>
?

> <Patent Number>
US11130745; US10815215

> <Authors>
Gradl, SN; Nguyen, D; Eis, K; Gunther, J; Stellfeld, T; Janzer, A; Christian, S; Muller, T; Sheikh, SE; Sykes, DB; Ferrara, SJ; Krober, M; Merz, C; Niehues, M; Schafer, M; Zimmermann, K; Nising, CF; Gradl, SN; Nguyen, D; Eis, K; Gunther, J; Stellfeld, T; Janzer, A; Christian, S; Muller, T; Sheikh, SE; Zhou, HJ; Zhao, C; Sykes, DB; Ferrara, SJ; Liu, K; Krober, M; Merz, C; Niehues, M; Schafer, M; Zimmermann, K; Nising, CF

> <Link to Ligand in BindingDB>
http://www.bindingdb.org/bind/chemsearch/marvin/MolStructure.jsp?monomerid=470555

> <Link to Ligand-Target Pair in BindingDB>
http://www.bindingdb.org/jsp/dbsearch/PrimarySearch_ki.jsp?energyterm=kJ/mole&tag=r21&monomerid=470555&enzyme=Dihydroorotate+dehydrogenase&column=ki&startPg=0&Increment=50&submit=Search

> <PubChem CID>
134470314

> <PubChem SID>
441609731

$$$$

  Mrv2115 07222212352D          

 27 30  0  0  0  0            999 V2000
   -0.7376    6.5451    0.0000 C   0  0  0  0  0  0  0  0  0  0  0  0
    0.0470    6.8001    0.0000 C   0  0  0  0  0  0  0  0  0  0  0  0
    0.3020    7.5847    0.0000 C   0  0  0  0  0  0  0  0  0  0  0  0
   -0.1830    8.2521    0.0000 C   0  0  0  0  0  0  0  0  0  0  0  0
    0.1526    9.0058    0.0000 O   0  0  0  0  0  0  0  0  0  0  0  0
   -1.0034    8.1659    0.0000 C   0  0  0  0  0  0  0  0  0  0  0  0
   -1.3390    7.4122    0.0000 C   0  0  0  0  0  0  0  0  0  0  0  0
   -2.1595    7.3260    0.0000 C   0  0  0  0  0  0  0  0  0  0  0  0
   -2.6444    7.9934    0.0000 C   0  0  0  0  0  0  0  0  0  0  0  0
   -2.3088    8.7471    0.0000 C   0  0  0  0  0  0  0  0  0  0  0  0
   -1.4884    8.8333    0.0000 C   0  0  0  0  0  0  0  0  0  0  0  0
    1.1270    7.5847    0.0000 C   0  0  0  0  0  0  0  0  0  0  0  0
    1.6119    8.2521    0.0000 O   0  0  0  0  0  0  0  0  0  0  0  0
    2.4324    8.1659    0.0000 C   0  0  0  0  0  0  0  0  0  0  0  0
    2.9173    8.8333    0.0000 C   0  0  0  0  0  0  0  0  0  0  0  0
    2.7679    7.4122    0.0000 C   0  0  0  0  0  0  0  0  0  0  0  0
    1.3819    6.8001    0.0000 N   0  0  0  0  0  0  0  0  0  0  0  0
    0.7145    6.3151    0.0000 N   0  0  0  0  0  0  0  0  0  0  0  0
    0.7145    5.4901    0.0000 C   0  0  0  0  0  0  0  0  0  0  0  0
    1.4289    5.0776    0.0000 N   0  0  0  0  0  0  0  0  0  0  0  0
    1.4289    4.2526    0.0000 C   0  0  0  0  0  0  0  0  0  0  0  0
    0.7145    3.8401    0.0000 C   0  0  0  0  0  0  0  0  0  0  0  0
    0.7145    3.0151    0.0000 C   0  0  0  0  0  0  0  0  0  0  0  0
    1.1270    2.3007    0.0000 C   0  0  0  0  0  0  0  0  0  0  0  0
    0.3020    2.3007    0.0000 C   0  0  0  0  0  0  0  0  0  0  0  0
    0.0000    4.2526    0.0000 C   0  0  0  0  0  0  0  0  0  0  0  0
    0.0000    5.0776    0.0000 N   0  0  0  0  0  0  0  0  0  0  0  0
  1  2  1  0  0  0  0
  2  3  4  0  0  0  0
  3  4  1  0  0  0  0
  4  5  1  0  0  0  0
  4  6  1  0  0  0  0
  6  7  4  0  0  0  0
  7  8  4  0  0  0  0
  8  9  4  0  0  0  0
  9 10  4  0  0  0  0
 10 11  4  0  0  0  0
  6 11  4  0  0  0  0
  3 12  4  0  0  0  0
 12 13  1  0  0  0  0
 13 14  1  0  0  0  0
 14 15  1  0  0  0  0
 14 16  1  0  0  0  0
 12 17  4  0  0  0  0
 17 18  4  0  0  0  0
  2 18  4  0  0  0  0
 18 19  1  0  0  0  0
 19 20  4  0  0  0  0
 20 21  4  0  0  0  0
 21 22  4  0  0  0  0
 22 23  1  0  0  0  0
 23 24  1  0  0  0  0
 24 25  1  0  0  0  0
 23 25  1  0  0  0  0
 22 26  4  0  0  0  0
 26 27  4  0  0  0  0
 19 27  4  0  0  0  0
M  END
> <IC50(uM)>
0.016

> <Outcome>
1.0

> <BindingDB ID>
50311219

> <BindingDB MonomerID>
50070906

> <BindingDB Ligand Name>
CHEMBL3409299

> <Curation/DataSource>
ChEMBL

> <Article DOI>
10.1021/jm501446r

> <PMID>
25558988

> <Patent Number>
?

> <Authors>
Munier-Lehmann, H; Lucas-Hourani, M; Guillou, S; Helynck, O; Zanghi, G; Noel, A; Tangy, F; Vidalain, PO; Janin, YL

> <Link to Ligand in BindingDB>
http://www.bindingdb.org/bind/chemsearch/marvin/MolStructure.jsp?monomerid=50070906

> <Link to Ligand-Target Pair in BindingDB>
http://www.bindingdb.org/jsp/dbsearch/PrimarySearch_ki.jsp?energyterm=kJ/mole&tag=r21&monomerid=50070906&enzyme=Dihydroorotate+dehydrogenase&column=ki&startPg=0&Increment=50&submit=Search

> <PubChem CID>
118430507

> <PubChem SID>
103964733

$$$$

  Mrv2115 07222212352D          

 33 36  0  0  0  0            999 V2000
    4.0668    2.3479    0.0000 C   0  0  0  0  0  0  0  0  0  0  0  0
    3.3523    1.9354    0.0000 C   0  0  0  0  0  0  0  0  0  0  0  0
    3.3523    1.1104    0.0000 C   0  0  0  0  0  0  0  0  0  0  0  0
    2.6378    0.6979    0.0000 C   0  0  0  0  0  0  0  0  0  0  0  0
    2.6378   -0.1271    0.0000 C   0  0  0  0  0  0  0  0  0  0  0  0
    3.3523   -0.5396    0.0000 O   0  0  0  0  0  0  0  0  0  0  0  0
    1.9233   -0.5396    0.0000 O   0  0  0  0  0  0  0  0  0  0  0  0
    1.9233    1.1104    0.0000 C   0  0  0  0  0  0  0  0  0  0  0  0
    1.9233    1.9354    0.0000 C   0  0  0  0  0  0  0  0  0  0  0  0
    2.6378    2.3479    0.0000 C   0  0  0  0  0  0  0  0  0  0  0  0
    1.1387    2.1904    0.0000 N   0  0  0  0  0  0  0  0  0  0  0  0
    0.6538    1.5229    0.0000 C   0  0  0  0  0  0  0  0  0  0  0  0
   -0.1712    1.5229    0.0000 C   0  0  0  0  0  0  0  0  0  0  0  0
   -0.5837    0.8085    0.0000 C   0  0  0  0  0  0  0  0  0  0  0  0
   -0.1712    0.0940    0.0000 F   0  0  0  0  0  0  0  0  0  0  0  0
   -1.4087    0.8085    0.0000 C   0  0  0  0  0  0  0  0  0  0  0  0
   -1.8212    0.0940    0.0000 F   0  0  0  0  0  0  0  0  0  0  0  0
   -1.8212    1.5229    0.0000 C   0  0  0  0  0  0  0  0  0  0  0  0
   -2.6462    1.5229    0.0000 C   0  0  0  0  0  0  0  0  0  0  0  0
   -3.0587    0.8085    0.0000 C   0  0  0  0  0  0  0  0  0  0  0  0
   -3.8837    0.8085    0.0000 C   0  0  0  0  0  0  0  0  0  0  0  0
   -4.2962    1.5229    0.0000 C   0  0  0  0  0  0  0  0  0  0  0  0
   -5.1212    1.5229    0.0000 O   0  0  0  0  0  0  0  0  0  0  0  0
   -3.8837    2.2374    0.0000 C   0  0  0  0  0  0  0  0  0  0  0  0
   -3.0587    2.2374    0.0000 C   0  0  0  0  0  0  0  0  0  0  0  0
   -1.4087    2.2374    0.0000 C   0  0  0  0  0  0  0  0  0  0  0  0
   -1.8212    2.9519    0.0000 F   0  0  0  0  0  0  0  0  0  0  0  0
   -0.5837    2.2374    0.0000 C   0  0  0  0  0  0  0  0  0  0  0  0
   -0.1712    2.9519    0.0000 F   0  0  0  0  0  0  0  0  0  0  0  0
    1.1387    0.8555    0.0000 N   0  0  0  0  0  0  0  0  0  0  0  0
    0.8838    0.0709    0.0000 C   0  0  0  0  0  0  0  0  0  0  0  0
    1.4358   -0.5422    0.0000 C   0  0  0  0  0  0  0  0  0  0  0  0
    1.1809   -1.3268    0.0000 O   0  0  0  0  0  0  0  0  0  0  0  0
  1  2  1  0  0  0  0
  2  3  4  0  0  0  0
  3  4  4  0  0  0  0
  4  5  1  0  0  0  0
  5  6  2  0  0  0  0
  5  7  1  0  0  0  0
  4  8  4  0  0  0  0
  8  9  4  0  0  0  0
  9 10  4  0  0  0  0
  2 10  4  0  0  0  0
  9 11  4  0  0  0  0
 11 12  4  0  0  0  0
 12 13  1  0  0  0  0
 13 14  4  0  0  0  0
 14 15  1  0  0  0  0
 14 16  4  0  0  0  0
 16 17  1  0  0  0  0
 16 18  4  0  0  0  0
 18 19  1  0  0  0  0
 19 20  4  0  0  0  0
 20 21  4  0  0  0  0
 21 22  4  0  0  0  0
 22 23  1  0  0  0  0
 22 24  4  0  0  0  0
 24 25  4  0  0  0  0
 19 25  4  0  0  0  0
 18 26  4  0  0  0  0
 26 27  1  0  0  0  0
 26 28  4  0  0  0  0
 13 28  4  0  0  0  0
 28 29  1  0  0  0  0
 12 30  4  0  0  0  0
  8 30  4  0  0  0  0
 30 31  1  0  0  0  0
 31 32  1  0  0  0  0
 32 33  1  0  0  0  0
M  END
> <IC50(uM)>
0.078

> <Outcome>
1.0

> <BindingDB ID>
297796

> <BindingDB MonomerID>
155452

> <BindingDB Ligand Name>
US9006454, I94

> <Curation/DataSource>
US Patent

> <Article DOI>
?

> <PMID>
?

> <Patent Number>
US9006454

> <Authors>
Thunuguntla, SS; Subramanya, H; Kunnam, SR; Sanivaru Vijay, SR; Bingi, C; Kusanur, R; Schwarz, M; Arlt, M

> <Link to Ligand in BindingDB>
http://www.bindingdb.org/bind/chemsearch/marvin/MolStructure.jsp?monomerid=155452

> <Link to Ligand-Target Pair in BindingDB>
http://www.bindingdb.org/jsp/dbsearch/PrimarySearch_ki.jsp?energyterm=kJ/mole&tag=r21&monomerid=155452&enzyme=Dihydroorotate+dehydrogenase&column=ki&startPg=0&Increment=50&submit=Search

> <PubChem CID>
58073771

> <PubChem SID>
253658389

$$$$

  Mrv2115 07222212352D          

 29 32  0  0  0  0            999 V2000
    3.9934    2.4750    0.0000 O   0  0  0  0  0  0  0  0  0  0  0  0
    3.2789    2.0625    0.0000 C   0  0  0  0  0  0  0  0  0  0  0  0
    2.5645    2.4750    0.0000 O   0  0  0  0  0  0  0  0  0  0  0  0
    3.2789    1.2375    0.0000 C   0  0  0  0  0  0  0  0  0  0  0  0
    3.9934    0.8250    0.0000 C   0  0  0  0  0  0  0  0  0  0  0  0
    3.9934    0.0000    0.0000 C   0  0  0  0  0  0  0  0  0  0  0  0
    3.2789   -0.4125    0.0000 C   0  0  0  0  0  0  0  0  0  0  0  0
    2.5645    0.0000    0.0000 C   0  0  0  0  0  0  0  0  0  0  0  0
    1.7798   -0.2549    0.0000 N   0  0  0  0  0  0  0  0  0  0  0  0
    1.2949    0.4125    0.0000 C   0  0  0  0  0  0  0  0  0  0  0  0
    0.4699    0.4125    0.0000 C   0  0  0  0  0  0  0  0  0  0  0  0
    0.0574   -0.3020    0.0000 C   0  0  0  0  0  0  0  0  0  0  0  0
    0.4699   -1.0164    0.0000 F   0  0  0  0  0  0  0  0  0  0  0  0
   -0.7676   -0.3020    0.0000 C   0  0  0  0  0  0  0  0  0  0  0  0
   -1.1801   -1.0164    0.0000 F   0  0  0  0  0  0  0  0  0  0  0  0
   -1.1801    0.4125    0.0000 C   0  0  0  0  0  0  0  0  0  0  0  0
   -2.0051    0.4125    0.0000 C   0  0  0  0  0  0  0  0  0  0  0  0
   -2.4176   -0.3020    0.0000 C   0  0  0  0  0  0  0  0  0  0  0  0
   -3.2426   -0.3020    0.0000 C   0  0  0  0  0  0  0  0  0  0  0  0
   -3.6551    0.4125    0.0000 C   0  0  0  0  0  0  0  0  0  0  0  0
   -3.2426    1.1270    0.0000 C   0  0  0  0  0  0  0  0  0  0  0  0
   -3.6551    1.8414    0.0000 F   0  0  0  0  0  0  0  0  0  0  0  0
   -2.4176    1.1270    0.0000 C   0  0  0  0  0  0  0  0  0  0  0  0
   -0.7676    1.1270    0.0000 C   0  0  0  0  0  0  0  0  0  0  0  0
   -1.1801    1.8414    0.0000 F   0  0  0  0  0  0  0  0  0  0  0  0
    0.0574    1.1270    0.0000 C   0  0  0  0  0  0  0  0  0  0  0  0
    0.4699    1.8414    0.0000 F   0  0  0  0  0  0  0  0  0  0  0  0
    1.7798    1.0799    0.0000 N   0  0  0  0  0  0  0  0  0  0  0  0
    2.5645    0.8250    0.0000 C   0  0  0  0  0  0  0  0  0  0  0  0
  1  2  2  0  0  0  0
  2  3  1  0  0  0  0
  2  4  1  0  0  0  0
  4  5  4  0  0  0  0
  5  6  4  0  0  0  0
  6  7  4  0  0  0  0
  7  8  4  0  0  0  0
  8  9  4  0  0  0  0
  9 10  4  0  0  0  0
 10 11  1  0  0  0  0
 11 12  4  0  0  0  0
 12 13  1  0  0  0  0
 12 14  4  0  0  0  0
 14 15  1  0  0  0  0
 14 16  4  0  0  0  0
 16 17  1  0  0  0  0
 17 18  4  0  0  0  0
 18 19  4  0  0  0  0
 19 20  4  0  0  0  0
 20 21  4  0  0  0  0
 21 22  1  0  0  0  0
 21 23  4  0  0  0  0
 17 23  4  0  0  0  0
 16 24  4  0  0  0  0
 24 25  1  0  0  0  0
 24 26  4  0  0  0  0
 11 26  4  0  0  0  0
 26 27  1  0  0  0  0
 10 28  4  0  0  0  0
 28 29  4  0  0  0  0
  4 29  4  0  0  0  0
  8 29  4  0  0  0  0
M  STY  1   1 DAT
M  SAL   1  1  28
M  SDT   1 MRV_IMPLICIT_H                                        
M  SDD   1     0.5304   -0.4125    DR    ALL  0       0  
M  SED   1 IMPL_H1
M  END
> <IC50(uM)>
0.0282

> <Outcome>
1.0

> <BindingDB ID>
297827

> <BindingDB MonomerID>
155483

> <BindingDB Ligand Name>
US9006454, I125

> <Curation/DataSource>
US Patent

> <Article DOI>
?

> <PMID>
?

> <Patent Number>
US9006454

> <Authors>
Thunuguntla, SS; Subramanya, H; Kunnam, SR; Sanivaru Vijay, SR; Bingi, C; Kusanur, R; Schwarz, M; Arlt, M

> <Link to Ligand in BindingDB>
http://www.bindingdb.org/bind/chemsearch/marvin/MolStructure.jsp?monomerid=155483

> <Link to Ligand-Target Pair in BindingDB>
http://www.bindingdb.org/jsp/dbsearch/PrimarySearch_ki.jsp?energyterm=kJ/mole&tag=r21&monomerid=155483&enzyme=Dihydroorotate+dehydrogenase&column=ki&startPg=0&Increment=50&submit=Search

> <PubChem CID>
88583055

> <PubChem SID>
253658420

$$$$

  Mrv2115 07222212352D          

 32 35  0  0  0  0            999 V2000
    0.5269   -3.0225    0.0000 C   0  0  0  0  0  0  0  0  0  0  0  0
   -0.0862   -2.4705    0.0000 C   0  0  0  0  0  0  0  0  0  0  0  0
   -0.8932   -2.6420    0.0000 N   0  0  0  0  0  0  0  0  0  0  0  0
   -1.3057   -1.9275    0.0000 N   0  0  0  0  0  0  0  0  0  0  0  0
   -0.7537   -1.3144    0.0000 C   0  0  0  0  0  0  0  0  0  0  0  0
   -0.9252   -0.5075    0.0000 Cl  0  0  0  0  0  0  0  0  0  0  0  0
    0.0000   -1.6500    0.0000 C   0  0  0  0  0  0  0  0  0  0  0  0
    0.7145   -1.2375    0.0000 C   0  0  0  0  0  0  0  0  0  0  0  0
    0.7145   -0.4125    0.0000 C   0  0  0  0  0  0  0  0  0  0  0  0
    1.4289    0.0000    0.0000 C   0  0  0  0  0  0  0  0  0  0  0  0
    1.4289    0.8250    0.0000 C   0  0  0  0  0  0  0  0  0  0  0  0
    2.1434    1.2375    0.0000 C   0  0  0  0  0  0  0  0  0  0  0  0
    0.7145    1.2375    0.0000 C   0  0  0  0  0  0  0  0  0  0  0  0
    2.1434   -0.4125    0.0000 C   0  0  0  0  0  0  0  0  0  0  0  0
    2.8579    0.0000    0.0000 C   0  0  0  0  0  0  0  0  0  0  0  0
    3.5724   -0.4125    0.0000 C   0  0  0  0  0  0  0  0  0  0  0  0
    4.2868   -0.0000    0.0000 C   0  0  0  0  0  0  0  0  0  0  0  0
    4.3731    0.8205    0.0000 N   0  0  0  0  0  0  0  0  0  0  0  0
    5.1800    0.9920    0.0000 C   0  0  0  0  0  0  0  0  0  0  0  0
    5.5156    1.7457    0.0000 C   0  0  0  0  0  0  0  0  0  0  0  0
    5.8511    2.4994    0.0000 C   0  0  0  0  0  0  0  0  0  0  0  0
    6.2693    1.4101    0.0000 C   0  0  0  0  0  0  0  0  0  0  0  0
    4.7619    2.0812    0.0000 O   0  0  0  0  0  0  0  0  0  0  0  0
    5.5925    0.2775    0.0000 N   0  0  0  0  0  0  0  0  0  0  0  0
    6.4130    0.1913    0.0000 C   0  0  0  0  0  0  0  0  0  0  0  0
    5.0405   -0.3356    0.0000 N   0  0  0  0  0  0  0  0  0  0  0  0
    3.5724   -1.2375    0.0000 C   0  0  0  0  0  0  0  0  0  0  0  0
    4.2868   -1.6500    0.0000 F   0  0  0  0  0  0  0  0  0  0  0  0
    2.8579   -1.6500    0.0000 C   0  0  0  0  0  0  0  0  0  0  0  0
    2.1434   -1.2375    0.0000 N   0  0  0  0  0  0  0  0  0  0  0  0
    1.4289   -1.6500    0.0000 C   0  0  0  0  0  0  0  0  0  0  0  0
    1.4289   -2.4750    0.0000 O   0  0  0  0  0  0  0  0  0  0  0  0
  1  2  1  0  0  0  0
  2  3  4  0  0  0  0
  3  4  4  0  0  0  0
  4  5  4  0  0  0  0
  5  6  1  0  0  0  0
  5  7  4  0  0  0  0
  2  7  4  0  0  0  0
  7  8  1  0  0  0  0
  8  9  4  0  0  0  0
  9 10  4  0  0  0  0
 10 11  1  0  0  0  0
 11 12  1  0  0  0  0
 11 13  1  0  0  0  0
 10 14  4  0  0  0  0
 14 15  4  0  0  0  0
 15 16  4  0  0  0  0
 16 17  1  0  0  0  0
 17 18  4  0  0  0  0
 18 19  4  0  0  0  0
 19 20  1  0  0  0  0
 20 21  1  0  0  0  0
 20 22  1  0  0  0  0
 20 23  1  0  0  0  0
 19 24  4  0  0  0  0
 24 25  1  0  0  0  0
 24 26  4  0  0  0  0
 17 26  4  0  0  0  0
 16 27  4  0  0  0  0
 27 28  1  0  0  0  0
 27 29  4  0  0  0  0
 29 30  4  0  0  0  0
 14 30  4  0  0  0  0
 30 31  4  0  0  0  0
  8 31  4  0  0  0  0
 31 32  2  0  0  0  0
M  STY  1   1 DAT
M  SAL   1  1   4
M  SDT   1 MRV_IMPLICIT_H                                        
M  SDD   1     0.5304   -0.4125    DR    ALL  0       0  
M  SED   1 IMPL_H1
M  END
> <IC50(uM)>
0.0021000000000000003

> <Outcome>
1.0

> <BindingDB ID>
1121401

> <BindingDB MonomerID>
530467

> <BindingDB Ligand Name>
3-(5-Chloro-3-methyl-1H-pyrazol-4-yl)-7-fluoro-8-(5-(2-hydroxypropan-2-yl)-1- methyl-1H-1,2,4-triazol-3-yl)-1-isopropyl-4H-quinolizin-4-one.::WO2022070071, Example 5

> <Curation/DataSource>
Curated from the literature by BindingDB

> <Article DOI>
?

> <PMID>
WO2022070071

> <Patent Number>
?

> <Authors>
Lindsey, D; Scott, K

> <Link to Ligand in BindingDB>
http://www.bindingdb.org/bind/chemsearch/marvin/MolStructure.jsp?monomerid=530467

> <Link to Ligand-Target Pair in BindingDB>
http://www.bindingdb.org/jsp/dbsearch/PrimarySearch_ki.jsp?energyterm=kJ/mole&tag=r21&monomerid=530467&enzyme=Dihydroorotate+dehydrogenase&column=ki&startPg=0&Increment=50&submit=Search

> <PubChem CID>
?

> <PubChem SID>
?

$$$$

  Mrv2115 07222212352D          

 27 30  0  0  0  0            999 V2000
   -0.1712   -0.6979    0.0000 C   0  0  0  0  0  0  0  0  0  0  0  0
    0.6538   -0.6979    0.0000 C   0  0  0  0  0  0  0  0  0  0  0  0
    1.1387   -0.0305    0.0000 N   0  0  0  0  0  0  0  0  0  0  0  0
    1.9233   -0.2854    0.0000 C   0  0  0  0  0  0  0  0  0  0  0  0
    2.6378    0.1271    0.0000 C   0  0  0  0  0  0  0  0  0  0  0  0
    2.6378    0.9521    0.0000 C   0  0  0  0  0  0  0  0  0  0  0  0
    3.3523    1.3646    0.0000 O   0  0  0  0  0  0  0  0  0  0  0  0
    1.9233    1.3646    0.0000 O   0  0  0  0  0  0  0  0  0  0  0  0
    3.3523   -0.2854    0.0000 C   0  0  0  0  0  0  0  0  0  0  0  0
    3.3523   -1.1104    0.0000 C   0  0  0  0  0  0  0  0  0  0  0  0
    4.0668   -1.5229    0.0000 C   0  0  0  0  0  0  0  0  0  0  0  0
    4.7812   -1.1104    0.0000 C   0  0  0  0  0  0  0  0  0  0  0  0
    5.4957   -1.5229    0.0000 C   0  0  0  0  0  0  0  0  0  0  0  0
    5.4957   -2.3479    0.0000 C   0  0  0  0  0  0  0  0  0  0  0  0
    6.2102   -2.7604    0.0000 O   0  0  0  0  0  0  0  0  0  0  0  0
    6.9246   -2.3479    0.0000 C   0  0  0  0  0  0  0  0  0  0  0  0
    7.6391   -2.7604    0.0000 C   0  0  0  0  0  0  0  0  0  0  0  0
    8.3536   -2.3479    0.0000 C   0  0  0  0  0  0  0  0  0  0  0  0
    9.0681   -2.7604    0.0000 C   0  0  0  0  0  0  0  0  0  0  0  0
    9.0681   -3.5854    0.0000 C   0  0  0  0  0  0  0  0  0  0  0  0
    8.3536   -3.9979    0.0000 C   0  0  0  0  0  0  0  0  0  0  0  0
    7.6391   -3.5854    0.0000 C   0  0  0  0  0  0  0  0  0  0  0  0
    4.7812   -2.7604    0.0000 C   0  0  0  0  0  0  0  0  0  0  0  0
    4.0668   -2.3479    0.0000 C   0  0  0  0  0  0  0  0  0  0  0  0
    2.6378   -1.5229    0.0000 C   0  0  0  0  0  0  0  0  0  0  0  0
    1.9233   -1.1104    0.0000 C   0  0  0  0  0  0  0  0  0  0  0  0
    1.1387   -1.3654    0.0000 N   0  0  0  0  0  0  0  0  0  0  0  0
  1  2  1  0  0  0  0
  2  3  4  0  0  0  0
  3  4  4  0  0  0  0
  4  5  4  0  0  0  0
  5  6  1  0  0  0  0
  6  7  2  0  0  0  0
  6  8  1  0  0  0  0
  5  9  4  0  0  0  0
  9 10  4  0  0  0  0
 10 11  1  0  0  0  0
 11 12  4  0  0  0  0
 12 13  4  0  0  0  0
 13 14  4  0  0  0  0
 14 15  1  0  0  0  0
 15 16  1  0  0  0  0
 16 17  1  0  0  0  0
 17 18  4  0  0  0  0
 18 19  4  0  0  0  0
 19 20  4  0  0  0  0
 20 21  4  0  0  0  0
 21 22  4  0  0  0  0
 17 22  4  0  0  0  0
 14 23  4  0  0  0  0
 23 24  4  0  0  0  0
 11 24  4  0  0  0  0
 10 25  4  0  0  0  0
 25 26  4  0  0  0  0
  4 26  4  0  0  0  0
 26 27  4  0  0  0  0
  2 27  4  0  0  0  0
M  STY  1   1 DAT
M  SAL   1  1  27
M  SDT   1 MRV_IMPLICIT_H                                        
M  SDD   1     0.5304   -0.4125    DR    ALL  0       0  
M  SED   1 IMPL_H1
M  END
> <IC50(uM)>
0.0055

> <Outcome>
1.0

> <BindingDB ID>
1045610

> <BindingDB MonomerID>
501668

> <BindingDB Ligand Name>
US11028054, Example 69

> <Curation/DataSource>
US Patent

> <Article DOI>
?

> <PMID>
?

> <Patent Number>
US11028054

> <Authors>
Thunuguntla, SS; Hosahalli, S; Panigrahi, SK; Schwarz, M; Arit, M

> <Link to Ligand in BindingDB>
http://www.bindingdb.org/bind/chemsearch/marvin/MolStructure.jsp?monomerid=501668

> <Link to Ligand-Target Pair in BindingDB>
http://www.bindingdb.org/jsp/dbsearch/PrimarySearch_ki.jsp?energyterm=kJ/mole&tag=r21&monomerid=501668&enzyme=Dihydroorotate+dehydrogenase&column=ki&startPg=0&Increment=50&submit=Search

> <PubChem CID>
?

> <PubChem SID>
?

$$$$

  Mrv2115 07222212352D          

 35 37  0  0  0  0            999 V2000
    0.7145   -3.7125    0.0000 C   0  0  0  0  0  0  0  0  0  0  0  0
    1.4289   -4.1250    0.0000 C   0  0  0  0  0  0  0  0  0  0  0  0
    2.1434   -3.7125    0.0000 C   0  0  0  0  0  0  0  0  0  0  0  0
    2.8579   -4.1250    0.0000 C   0  0  0  0  0  0  0  0  0  0  0  0
    2.8579   -4.9500    0.0000 C   0  0  0  0  0  0  0  0  0  0  0  0
    3.5724   -3.7125    0.0000 O   0  0  0  0  0  0  0  0  0  0  0  0
    3.5724   -2.8875    0.0000 C   0  0  0  0  0  0  0  0  0  0  0  0
    2.8579   -2.4750    0.0000 C   0  0  0  0  0  0  0  0  0  0  0  0
    2.8579   -1.6500    0.0000 C   0  0  0  0  0  0  0  0  0  0  0  0
    2.1434   -1.2375    0.0000 N   0  0  0  0  0  0  0  0  0  0  0  0
    1.3897   -1.5731    0.0000 N   0  0  0  0  0  0  0  0  0  0  0  0
    0.8377   -0.9600    0.0000 C   0  0  0  0  0  0  0  0  0  0  0  0
    0.0172   -1.0462    0.0000 C   0  0  0  0  0  0  0  0  0  0  0  0
   -0.3183   -1.7999    0.0000 C   0  0  0  0  0  0  0  0  0  0  0  0
    1.2502   -0.2455    0.0000 N   0  0  0  0  0  0  0  0  0  0  0  0
    0.9146    0.5082    0.0000 C   0  0  0  0  0  0  0  0  0  0  0  0
    2.0572   -0.4170    0.0000 C   0  0  0  0  0  0  0  0  0  0  0  0
    2.6703    0.1350    0.0000 O   0  0  0  0  0  0  0  0  0  0  0  0
    3.5724   -1.2375    0.0000 C   0  0  0  0  0  0  0  0  0  0  0  0
    3.5724   -0.4125    0.0000 F   0  0  0  0  0  0  0  0  0  0  0  0
    4.2868   -1.6500    0.0000 C   0  0  0  0  0  0  0  0  0  0  0  0
    4.2868   -2.4750    0.0000 C   0  0  0  0  0  0  0  0  0  0  0  0
    5.0013   -2.8875    0.0000 C   0  0  0  0  0  0  0  0  0  0  0  0
    5.7158   -2.4750    0.0000 O   0  0  0  0  0  0  0  0  0  0  0  0
    5.0013   -3.7125    0.0000 N   0  0  0  0  0  0  0  0  0  0  0  0
    5.7158   -4.1250    0.0000 C   0  0  0  0  0  0  0  0  0  0  0  0
    6.4302   -3.7125    0.0000 C   0  0  0  0  0  0  0  0  0  0  0  0
    7.1447   -4.1250    0.0000 C   0  0  0  0  0  0  0  0  0  0  0  0
    7.1447   -4.9500    0.0000 C   0  0  0  0  0  0  0  0  0  0  0  0
    6.4302   -5.3625    0.0000 C   0  0  0  0  0  0  0  0  0  0  0  0
    6.4302   -6.1875    0.0000 C   0  0  0  0  0  0  0  0  0  0  0  0
    6.4302   -7.0125    0.0000 F   0  0  0  0  0  0  0  0  0  0  0  0
    5.6052   -6.1875    0.0000 F   0  0  0  0  0  0  0  0  0  0  0  0
    7.2552   -6.1875    0.0000 F   0  0  0  0  0  0  0  0  0  0  0  0
    5.7158   -4.9500    0.0000 C   0  0  0  0  0  0  0  0  0  0  0  0
  1  2  1  0  0  0  0
  2  3  1  0  0  0  0
  3  4  1  0  0  0  0
  4  5  1  0  0  0  0
  4  6  1  0  0  0  0
  6  7  1  0  0  0  0
  7  8  4  0  0  0  0
  8  9  4  0  0  0  0
  9 10  1  0  0  0  0
 10 11  4  0  0  0  0
 11 12  4  0  0  0  0
 12 13  1  0  0  0  0
 13 14  1  0  0  0  0
 12 15  4  0  0  0  0
 15 16  1  0  0  0  0
 15 17  4  0  0  0  0
 10 17  4  0  0  0  0
 17 18  2  0  0  0  0
  9 19  4  0  0  0  0
 19 20  1  0  0  0  0
 19 21  4  0  0  0  0
 21 22  4  0  0  0  0
  7 22  4  0  0  0  0
 22 23  1  0  0  0  0
 23 24  2  0  0  0  0
 23 25  1  0  0  0  0
 25 26  1  0  0  0  0
 26 27  4  0  0  0  0
 27 28  4  0  0  0  0
 28 29  4  0  0  0  0
 29 30  4  0  0  0  0
 30 31  1  0  0  0  0
 31 32  1  0  0  0  0
 31 33  1  0  0  0  0
 31 34  1  0  0  0  0
 30 35  4  0  0  0  0
 26 35  4  0  0  0  0
M  END
> <IC50(uM)>
0.1919

> <Outcome>
1.0

> <BindingDB ID>
972470; 1098624; 1098623; 972469

> <BindingDB MonomerID>
470361

> <BindingDB Ligand Name>
4-(3-ethyl-4-methyl-5-oxo-4,5-dihydro-1H-1,2,4-triazol-1-yl)-5-fluoro-2-[(2S)-pentan-2-yloxy]-N-[3-(trifluoromethyl)phenyl]benzamide::US10815215, Example 20; 4-(3-ethyl-4-methyl-5-oxo-4,5-dihydro-1H-1,2,4-triazol-1-yl)-5-fluoro-2-[(2S)-pentan-2-yloxy]-N-[3-(trifluoromethyl)phenyl]benzamide::US10815215, Example 20::US11130745, Example 20

> <Curation/DataSource>
US Patent

> <Article DOI>
?

> <PMID>
?

> <Patent Number>
US10815215; US11130745

> <Authors>
Gradl, SN; Nguyen, D; Eis, K; Gunther, J; Stellfeld, T; Janzer, A; Christian, S; Muller, T; Sheikh, SE; Zhou, HJ; Zhao, C; Sykes, DB; Ferrara, SJ; Liu, K; Krober, M; Merz, C; Niehues, M; Schafer, M; Zimmermann, K; Nising, CF; Gradl, SN; Nguyen, D; Eis, K; Gunther, J; Stellfeld, T; Janzer, A; Christian, S; Muller, T; Sheikh, SE; Sykes, DB; Ferrara, SJ; Krober, M; Merz, C; Niehues, M; Schafer, M; Zimmermann, K; Nising, CF

> <Link to Ligand in BindingDB>
http://www.bindingdb.org/bind/chemsearch/marvin/MolStructure.jsp?monomerid=470361

> <Link to Ligand-Target Pair in BindingDB>
http://www.bindingdb.org/jsp/dbsearch/PrimarySearch_ki.jsp?energyterm=kJ/mole&tag=r21&monomerid=470361&enzyme=Dihydroorotate+dehydrogenase&column=ki&startPg=0&Increment=50&submit=Search

> <PubChem CID>
142335843

> <PubChem SID>
441609538

$$$$

  Mrv2115 07222212352D          

 37 41  0  0  0  0            999 V2000
   -1.8659    1.4455    0.0000 C   0  0  0  0  0  0  0  0  0  0  0  0
   -2.6909    1.4455    0.0000 C   0  0  0  0  0  0  0  0  0  0  0  0
   -3.1034    0.7310    0.0000 O   0  0  0  0  0  0  0  0  0  0  0  0
   -2.6909    0.0165    0.0000 C   0  0  0  0  0  0  0  0  0  0  0  0
   -1.8659    0.0165    0.0000 C   0  0  0  0  0  0  0  0  0  0  0  0
   -1.4534   -0.6979    0.0000 C   0  0  0  0  0  0  0  0  0  0  0  0
   -0.6284   -0.6979    0.0000 N   0  0  0  0  0  0  0  0  0  0  0  0
   -0.1435   -1.3654    0.0000 N   0  0  0  0  0  0  0  0  0  0  0  0
    0.6411   -1.1104    0.0000 C   0  0  0  0  0  0  0  0  0  0  0  0
    0.6411   -0.2854    0.0000 N   0  0  0  0  0  0  0  0  0  0  0  0
   -0.1435   -0.0305    0.0000 C   0  0  0  0  0  0  0  0  0  0  0  0
   -0.3984    0.7541    0.0000 O   0  0  0  0  0  0  0  0  0  0  0  0
    1.3556    0.1271    0.0000 C   0  0  0  0  0  0  0  0  0  0  0  0
    2.0701   -0.2854    0.0000 C   0  0  0  0  0  0  0  0  0  0  0  0
    2.0701   -1.1104    0.0000 C   0  0  0  0  0  0  0  0  0  0  0  0
    1.3556   -1.5229    0.0000 C   0  0  0  0  0  0  0  0  0  0  0  0
   -1.8659   -1.4124    0.0000 C   0  0  0  0  0  0  0  0  0  0  0  0
   -1.4534   -2.1269    0.0000 F   0  0  0  0  0  0  0  0  0  0  0  0
   -2.6909   -1.4124    0.0000 C   0  0  0  0  0  0  0  0  0  0  0  0
   -3.1034   -0.6979    0.0000 C   0  0  0  0  0  0  0  0  0  0  0  0
   -3.9284   -0.6979    0.0000 C   0  0  0  0  0  0  0  0  0  0  0  0
   -4.3409    0.0165    0.0000 O   0  0  0  0  0  0  0  0  0  0  0  0
   -4.3409   -1.4124    0.0000 N   0  0  0  0  0  0  0  0  0  0  0  0
   -5.1659   -1.4124    0.0000 C   0  0  0  0  0  0  0  0  0  0  0  0
   -5.5784   -0.6979    0.0000 C   0  0  0  0  0  0  0  0  0  0  0  0
   -5.1659    0.0165    0.0000 F   0  0  0  0  0  0  0  0  0  0  0  0
   -6.4034   -0.6979    0.0000 C   0  0  0  0  0  0  0  0  0  0  0  0
   -6.8159   -1.4124    0.0000 C   0  0  0  0  0  0  0  0  0  0  0  0
   -6.4034   -2.1269    0.0000 C   0  0  0  0  0  0  0  0  0  0  0  0
   -5.5784   -2.1269    0.0000 C   0  0  0  0  0  0  0  0  0  0  0  0
   -5.1659   -2.8414    0.0000 Cl  0  0  0  0  0  0  0  0  0  0  0  0
   -3.1034    2.1599    0.0000 C   0  0  0  0  0  0  0  0  0  0  0  0
   -3.9284    2.1599    0.0000 C   0  0  0  0  0  0  0  0  0  0  0  0
   -4.3409    2.8744    0.0000 C   0  0  0  0  0  0  0  0  0  0  0  0
   -3.9284    3.5889    0.0000 C   0  0  0  0  0  0  0  0  0  0  0  0
   -3.1034    3.5889    0.0000 C   0  0  0  0  0  0  0  0  0  0  0  0
   -2.6909    2.8744    0.0000 C   0  0  0  0  0  0  0  0  0  0  0  0
  1  2  1  0  0  0  0
  2  3  1  0  0  0  0
  3  4  1  0  0  0  0
  4  5  4  0  0  0  0
  5  6  4  0  0  0  0
  6  7  1  0  0  0  0
  7  8  4  0  0  0  0
  8  9  4  0  0  0  0
  9 10  4  0  0  0  0
 10 11  4  0  0  0  0
  7 11  4  0  0  0  0
 11 12  2  0  0  0  0
 10 13  1  0  0  0  0
 13 14  1  0  0  0  0
 14 15  1  0  0  0  0
 15 16  1  0  0  0  0
  9 16  1  0  0  0  0
  6 17  4  0  0  0  0
 17 18  1  0  0  0  0
 17 19  4  0  0  0  0
 19 20  4  0  0  0  0
  4 20  4  0  0  0  0
 20 21  1  0  0  0  0
 21 22  2  0  0  0  0
 21 23  1  0  0  0  0
 23 24  1  0  0  0  0
 24 25  4  0  0  0  0
 25 26  1  0  0  0  0
 25 27  4  0  0  0  0
 27 28  4  0  0  0  0
 28 29  4  0  0  0  0
 29 30  4  0  0  0  0
 24 30  4  0  0  0  0
 30 31  1  0  0  0  0
  2 32  1  0  0  0  0
 32 33  1  0  0  0  0
 33 34  1  0  0  0  0
 34 35  1  0  0  0  0
 35 36  1  0  0  0  0
 36 37  1  0  0  0  0
 32 37  1  0  0  0  0
M  END
> <IC50(uM)>
0.005

> <Outcome>
1.0

> <BindingDB ID>
1020562

> <BindingDB MonomerID>
490501

> <BindingDB Ligand Name>
N-(2-chloro-6-fluorophenyl)-2-[(1S)-1-cyclohexylethoxy]-5-fluoro-4-(3-oxo-5,6,7,8-tetrahydro[1,2,4]triazolo[4,3-a]pyridin-2(3H)-yl)benzamide::US10968216, Example 169

> <Curation/DataSource>
US Patent

> <Article DOI>
?

> <PMID>
?

> <Patent Number>
US10968216

> <Authors>
Gradl, SN; Nguyen, D; Eis, K; Gunther, J; Stellfeld, T; Janzer, A; Christian, S; Mueller, T; Sheikh, SE; Zhou, HJ; Zhao, C; Sykes, DB; Ferrara, SJ; Liu, K; Herbert, SA; Merz, C; Niehues, M; Nising, CF; Schafer, M; Zimmermann, K; Knablein, J; Thede, K; Faupel, T

> <Link to Ligand in BindingDB>
http://www.bindingdb.org/bind/chemsearch/marvin/MolStructure.jsp?monomerid=490501

> <Link to Ligand-Target Pair in BindingDB>
http://www.bindingdb.org/jsp/dbsearch/PrimarySearch_ki.jsp?energyterm=kJ/mole&tag=r21&monomerid=490501&enzyme=Dihydroorotate+dehydrogenase&column=ki&startPg=0&Increment=50&submit=Search

> <PubChem CID>
142335894

> <PubChem SID>
447117228

$$$$

  Mrv2115 07222212352D          

 31 34  0  0  0  0            999 V2000
    0.0000   -1.6500    0.0000 C   0  0  0  0  0  0  0  0  0  0  0  0
    0.7145   -1.2375    0.0000 C   0  0  0  0  0  0  0  0  0  0  0  0
    0.7145   -0.4125    0.0000 C   0  0  0  0  0  0  0  0  0  0  0  0
    0.0000    0.0000    0.0000 C   0  0  0  0  0  0  0  0  0  0  0  0
   -0.7145   -0.4125    0.0000 C   0  0  0  0  0  0  0  0  0  0  0  0
   -1.4289    0.0000    0.0000 C   0  0  0  0  0  0  0  0  0  0  0  0
   -1.4289    0.8250    0.0000 C   0  0  0  0  0  0  0  0  0  0  0  0
   -2.1434    1.2375    0.0000 C   0  0  0  0  0  0  0  0  0  0  0  0
   -2.8579    0.8250    0.0000 C   0  0  0  0  0  0  0  0  0  0  0  0
   -3.5724    1.2375    0.0000 C   0  0  0  0  0  0  0  0  0  0  0  0
   -3.5724    2.0625    0.0000 C   0  0  0  0  0  0  0  0  0  0  0  0
   -2.8579    2.4750    0.0000 N   0  0  0  0  0  0  0  0  0  0  0  0
   -2.1434    2.0625    0.0000 C   0  0  0  0  0  0  0  0  0  0  0  0
   -1.4289    2.4750    0.0000 Cl  0  0  0  0  0  0  0  0  0  0  0  0
   -0.7145    1.2375    0.0000 C   0  0  0  0  0  0  0  0  0  0  0  0
    0.0000    0.8250    0.0000 C   0  0  0  0  0  0  0  0  0  0  0  0
    1.4289    0.0000    0.0000 N   0  0  0  0  0  0  0  0  0  0  0  0
    2.1434   -0.4125    0.0000 C   0  0  0  0  0  0  0  0  0  0  0  0
    2.8579    0.0000    0.0000 C   0  0  0  0  0  0  0  0  0  0  0  0
    3.5724   -0.4125    0.0000 N   0  0  0  0  0  0  0  0  0  0  0  0
    3.5724   -1.2375    0.0000 C   0  0  0  0  0  0  0  0  0  0  0  0
    4.2868   -1.6500    0.0000 C   0  0  0  0  0  0  0  0  0  0  0  0
    5.0013   -2.0625    0.0000 F   0  0  0  0  0  0  0  0  0  0  0  0
    3.8743   -2.3645    0.0000 F   0  0  0  0  0  0  0  0  0  0  0  0
    4.6993   -0.9355    0.0000 F   0  0  0  0  0  0  0  0  0  0  0  0
    2.8579   -1.6500    0.0000 C   0  0  0  0  0  0  0  0  0  0  0  0
    2.1434   -1.2375    0.0000 C   0  0  0  0  0  0  0  0  0  0  0  0
    1.4289   -1.6500    0.0000 C   0  0  0  0  0  0  0  0  0  0  0  0
    1.4289   -2.4750    0.0000 C   0  0  0  0  0  0  0  0  0  0  0  0
    0.7145   -2.8875    0.0000 O   0  0  0  0  0  0  0  0  0  0  0  0
    2.1434   -2.8875    0.0000 O   0  0  0  0  0  0  0  0  0  0  0  0
  1  2  1  0  0  0  0
  2  3  4  0  0  0  0
  3  4  1  0  0  0  0
  4  5  4  0  0  0  0
  5  6  4  0  0  0  0
  6  7  4  0  0  0  0
  7  8  1  0  0  0  0
  8  9  4  0  0  0  0
  9 10  4  0  0  0  0
 10 11  4  0  0  0  0
 11 12  4  0  0  0  0
 12 13  4  0  0  0  0
  8 13  4  0  0  0  0
 13 14  1  0  0  0  0
  7 15  4  0  0  0  0
 15 16  4  0  0  0  0
  4 16  4  0  0  0  0
  3 17  4  0  0  0  0
 17 18  4  0  0  0  0
 18 19  4  0  0  0  0
 19 20  4  0  0  0  0
 20 21  4  0  0  0  0
 21 22  1  0  0  0  0
 22 23  1  0  0  0  0
 22 24  1  0  0  0  0
 22 25  1  0  0  0  0
 21 26  4  0  0  0  0
 26 27  4  0  0  0  0
 18 27  4  0  0  0  0
 27 28  4  0  0  0  0
  2 28  4  0  0  0  0
 28 29  1  0  0  0  0
 29 30  2  0  0  0  0
 29 31  1  0  0  0  0
M  END
> <IC50(uM)>
0.201

> <Outcome>
1.0

> <BindingDB ID>
51126205

> <BindingDB MonomerID>
50461891

> <BindingDB Ligand Name>
CHEMBL4228585

> <Curation/DataSource>
ChEMBL

> <Article DOI>
10.1021/acs.jmedchem.7b01862

> <PMID>
29727569

> <Patent Number>
?

> <Authors>
Madak, JT; Cuthbertson, CR; Miyata, Y; Tamura, S; Petrunak, EM; Stuckey, JA; Han, Y; He, M; Sun, D; Showalter, HD; Neamati, N

> <Link to Ligand in BindingDB>
http://www.bindingdb.org/bind/chemsearch/marvin/MolStructure.jsp?monomerid=50461891

> <Link to Ligand-Target Pair in BindingDB>
http://www.bindingdb.org/jsp/dbsearch/PrimarySearch_ki.jsp?energyterm=kJ/mole&tag=r21&monomerid=50461891&enzyme=Dihydroorotate+dehydrogenase&column=ki&startPg=0&Increment=50&submit=Search

> <PubChem CID>
145970472

> <PubChem SID>
433929156

$$$$

  Mrv2115 07222212352D          

 23 25  0  0  0  0            999 V2000
    0.0000   -1.6500    0.0000 C   0  0  0  0  0  0  0  0  0  0  0  0
    0.7145   -1.2375    0.0000 C   0  0  0  0  0  0  0  0  0  0  0  0
    0.7145   -0.4125    0.0000 C   0  0  0  0  0  0  0  0  0  0  0  0
    1.4289    0.0000    0.0000 C   0  0  0  0  0  0  0  0  0  0  0  0
    2.1434   -0.4125    0.0000 C   0  0  0  0  0  0  0  0  0  0  0  0
    2.8579    0.0000    0.0000 C   0  0  0  0  0  0  0  0  0  0  0  0
    2.8579    0.8250    0.0000 C   0  0  0  0  0  0  0  0  0  0  0  0
    3.5724    1.2375    0.0000 O   0  0  0  0  0  0  0  0  0  0  0  0
    2.1434    1.2375    0.0000 O   0  0  0  0  0  0  0  0  0  0  0  0
    3.5724   -0.4125    0.0000 C   0  0  0  0  0  0  0  0  0  0  0  0
    4.2868   -0.0000    0.0000 O   0  0  0  0  0  0  0  0  0  0  0  0
    3.5724   -1.2375    0.0000 C   0  0  0  0  0  0  0  0  0  0  0  0
    4.2868   -1.6500    0.0000 C   0  0  0  0  0  0  0  0  0  0  0  0
    5.0013   -1.2375    0.0000 C   0  0  0  0  0  0  0  0  0  0  0  0
    5.7158   -1.6500    0.0000 C   0  0  0  0  0  0  0  0  0  0  0  0
    5.7158   -2.4750    0.0000 C   0  0  0  0  0  0  0  0  0  0  0  0
    6.4302   -2.8875    0.0000 Cl  0  0  0  0  0  0  0  0  0  0  0  0
    5.0013   -2.8875    0.0000 C   0  0  0  0  0  0  0  0  0  0  0  0
    4.2868   -2.4750    0.0000 C   0  0  0  0  0  0  0  0  0  0  0  0
    2.8579   -1.6500    0.0000 N   0  0  0  0  0  0  0  0  0  0  0  0
    2.1434   -1.2375    0.0000 C   0  0  0  0  0  0  0  0  0  0  0  0
    1.4289   -1.6500    0.0000 C   0  0  0  0  0  0  0  0  0  0  0  0
    1.4289   -2.4750    0.0000 C   0  0  0  0  0  0  0  0  0  0  0  0
  1  2  1  0  0  0  0
  2  3  4  0  0  0  0
  3  4  4  0  0  0  0
  4  5  4  0  0  0  0
  5  6  4  0  0  0  0
  6  7  1  0  0  0  0
  7  8  2  0  0  0  0
  7  9  1  0  0  0  0
  6 10  4  0  0  0  0
 10 11  1  0  0  0  0
 10 12  4  0  0  0  0
 12 13  1  0  0  0  0
 13 14  4  0  0  0  0
 14 15  4  0  0  0  0
 15 16  4  0  0  0  0
 16 17  1  0  0  0  0
 16 18  4  0  0  0  0
 18 19  4  0  0  0  0
 13 19  4  0  0  0  0
 12 20  4  0  0  0  0
 20 21  4  0  0  0  0
  5 21  4  0  0  0  0
 21 22  4  0  0  0  0
  2 22  4  0  0  0  0
 22 23  1  0  0  0  0
M  END
> <IC50(uM)>
72.0

> <Outcome>
0.0

> <BindingDB ID>
50841879

> <BindingDB MonomerID>
50201902

> <BindingDB Ligand Name>
2-(4-chlorophenyl)-3-hydroxy-7,8-dimethylquinoline-4-carboxylicacid::CHEMBL267210

> <Curation/DataSource>
ChEMBL

> <Article DOI>
10.1021/jm0602256

> <PMID>
17201408

> <Patent Number>
?

> <Authors>
Kaila, N; Janz, K; DeBernardo, S; Bedard, PW; Camphausen, RT; Tam, S; Tsao, DH; Keith, JC; Nickerson-Nutter, C; Shilling, A; Young-Sciame, R; Wang, Q

> <Link to Ligand in BindingDB>
http://www.bindingdb.org/bind/chemsearch/marvin/MolStructure.jsp?monomerid=50201902

> <Link to Ligand-Target Pair in BindingDB>
http://www.bindingdb.org/jsp/dbsearch/PrimarySearch_ki.jsp?energyterm=kJ/mole&tag=r21&monomerid=50201902&enzyme=Dihydroorotate+dehydrogenase&column=ki&startPg=0&Increment=50&submit=Search

> <PubChem CID>
16099905

> <PubChem SID>
104081553

$$$$

  Mrv2115 07222212352D          

 20 22  0  0  0  0            999 V2000
    4.0668    2.3479    0.0000 C   0  0  0  0  0  0  0  0  0  0  0  0
    3.3523    1.9354    0.0000 C   0  0  0  0  0  0  0  0  0  0  0  0
    3.3523    1.1104    0.0000 C   0  0  0  0  0  0  0  0  0  0  0  0
    2.6378    0.6979    0.0000 C   0  0  0  0  0  0  0  0  0  0  0  0
    2.6378   -0.1271    0.0000 O   0  0  0  0  0  0  0  0  0  0  0  0
    1.9233    1.1104    0.0000 N   0  0  0  0  0  0  0  0  0  0  0  0
    1.1387    0.8555    0.0000 N   0  0  0  0  0  0  0  0  0  0  0  0
    0.6538    1.5229    0.0000 C   0  0  0  0  0  0  0  0  0  0  0  0
   -0.1712    1.5229    0.0000 S   0  0  0  0  0  0  0  0  0  0  0  0
   -0.5837    0.8085    0.0000 C   0  0  0  0  0  0  0  0  0  0  0  0
   -1.4087    0.8085    0.0000 C   0  0  0  0  0  0  0  0  0  0  0  0
   -1.8212    0.0940    0.0000 C   0  0  0  0  0  0  0  0  0  0  0  0
   -2.6462    0.0940    0.0000 C   0  0  0  0  0  0  0  0  0  0  0  0
   -3.0587    0.8085    0.0000 C   0  0  0  0  0  0  0  0  0  0  0  0
   -3.8837    0.8085    0.0000 Br  0  0  0  0  0  0  0  0  0  0  0  0
   -2.6462    1.5229    0.0000 C   0  0  0  0  0  0  0  0  0  0  0  0
   -1.8212    1.5229    0.0000 C   0  0  0  0  0  0  0  0  0  0  0  0
    1.1387    2.1904    0.0000 N   0  0  0  0  0  0  0  0  0  0  0  0
    1.9233    1.9354    0.0000 C   0  0  0  0  0  0  0  0  0  0  0  0
    2.6378    2.3479    0.0000 N   0  0  0  0  0  0  0  0  0  0  0  0
  1  2  1  0  0  0  0
  2  3  4  0  0  0  0
  3  4  4  0  0  0  0
  4  5  2  0  0  0  0
  4  6  4  0  0  0  0
  6  7  4  0  0  0  0
  7  8  4  0  0  0  0
  8  9  1  0  0  0  0
  9 10  1  0  0  0  0
 10 11  1  0  0  0  0
 11 12  4  0  0  0  0
 12 13  4  0  0  0  0
 13 14  4  0  0  0  0
 14 15  1  0  0  0  0
 14 16  4  0  0  0  0
 16 17  4  0  0  0  0
 11 17  4  0  0  0  0
  8 18  4  0  0  0  0
 18 19  4  0  0  0  0
  6 19  4  0  0  0  0
 19 20  4  0  0  0  0
  2 20  4  0  0  0  0
M  STY  1   1 DAT
M  SAL   1  1   7
M  SDT   1 MRV_IMPLICIT_H                                        
M  SDD   1     0.5304   -0.4125    DR    ALL  0       0  
M  SED   1 IMPL_H1
M  END
> <IC50(uM)>
32.0

> <Outcome>
0.0

> <BindingDB ID>
50970252

> <BindingDB MonomerID>
50397825

> <BindingDB Ligand Name>
CHEMBL2177853

> <Curation/DataSource>
ChEMBL

> <Article DOI>
10.1021/jm300157n

> <PMID>
22621375

> <Patent Number>
?

> <Authors>
Bedingfield, PT; Cowen, D; Acklam, P; Cunningham, F; Parsons, MR; McConkey, GA; Fishwick, CW; Johnson, AP

> <Link to Ligand in BindingDB>
http://www.bindingdb.org/bind/chemsearch/marvin/MolStructure.jsp?monomerid=50397825

> <Link to Ligand-Target Pair in BindingDB>
http://www.bindingdb.org/jsp/dbsearch/PrimarySearch_ki.jsp?energyterm=kJ/mole&tag=r21&monomerid=50397825&enzyme=Dihydroorotate+dehydrogenase&column=ki&startPg=0&Increment=50&submit=Search

> <PubChem CID>
60166358

> <PubChem SID>
163346849

$$$$

  Mrv2115 07222212352D          

 36 40  0  0  0  0            999 V2000
   -5.1659   -2.8414    0.0000 C   0  0  0  0  0  0  0  0  0  0  0  0
   -5.5784   -2.1269    0.0000 C   0  0  0  0  0  0  0  0  0  0  0  0
   -6.4034   -2.1269    0.0000 N   0  0  0  0  0  0  0  0  0  0  0  0
   -6.8159   -1.4124    0.0000 C   0  0  0  0  0  0  0  0  0  0  0  0
   -6.4034   -0.6979    0.0000 C   0  0  0  0  0  0  0  0  0  0  0  0
   -5.5784   -0.6979    0.0000 N   0  0  0  0  0  0  0  0  0  0  0  0
   -5.1659   -1.4124    0.0000 C   0  0  0  0  0  0  0  0  0  0  0  0
   -4.3409   -1.4124    0.0000 N   0  0  0  0  0  0  0  0  0  0  0  0
   -3.9284   -0.6979    0.0000 C   0  0  0  0  0  0  0  0  0  0  0  0
   -4.3409    0.0165    0.0000 O   0  0  0  0  0  0  0  0  0  0  0  0
   -3.1034   -0.6979    0.0000 C   0  0  0  0  0  0  0  0  0  0  0  0
   -2.6909    0.0165    0.0000 C   0  0  0  0  0  0  0  0  0  0  0  0
   -1.8659    0.0165    0.0000 C   0  0  0  0  0  0  0  0  0  0  0  0
   -1.4534    0.7310    0.0000 F   0  0  0  0  0  0  0  0  0  0  0  0
   -1.4534   -0.6979    0.0000 C   0  0  0  0  0  0  0  0  0  0  0  0
   -0.6284   -0.6979    0.0000 N   0  0  0  0  0  0  0  0  0  0  0  0
   -0.1435   -1.3654    0.0000 N   0  0  0  0  0  0  0  0  0  0  0  0
    0.6411   -1.1104    0.0000 C   0  0  0  0  0  0  0  0  0  0  0  0
    0.6411   -0.2854    0.0000 N   0  0  0  0  0  0  0  0  0  0  0  0
   -0.1435   -0.0305    0.0000 C   0  0  0  0  0  0  0  0  0  0  0  0
   -0.3984    0.7541    0.0000 O   0  0  0  0  0  0  0  0  0  0  0  0
    1.3556    0.1271    0.0000 C   0  0  0  0  0  0  0  0  0  0  0  0
    2.0701   -0.2854    0.0000 C   0  0  0  0  0  0  0  0  0  0  0  0
    2.0701   -1.1104    0.0000 C   0  0  0  0  0  0  0  0  0  0  0  0
    1.3556   -1.5229    0.0000 C   0  0  0  0  0  0  0  0  0  0  0  0
   -1.8659   -1.4124    0.0000 C   0  0  0  0  0  0  0  0  0  0  0  0
   -2.6909   -1.4124    0.0000 C   0  0  0  0  0  0  0  0  0  0  0  0
   -3.1034   -2.1269    0.0000 O   0  0  0  0  0  0  0  0  0  0  0  0
   -2.6909   -2.8414    0.0000 C   0  0  0  0  0  0  0  0  0  0  0  0
   -1.8659   -2.8414    0.0000 C   0  0  0  0  0  0  0  0  0  0  0  0
   -3.1034   -3.5558    0.0000 C   0  0  0  0  0  0  0  0  0  0  0  0
   -2.6909   -4.2703    0.0000 C   0  0  0  0  0  0  0  0  0  0  0  0
   -3.1034   -4.9848    0.0000 C   0  0  0  0  0  0  0  0  0  0  0  0
   -3.9284   -4.9848    0.0000 C   0  0  0  0  0  0  0  0  0  0  0  0
   -4.3409   -4.2703    0.0000 C   0  0  0  0  0  0  0  0  0  0  0  0
   -3.9284   -3.5558    0.0000 C   0  0  0  0  0  0  0  0  0  0  0  0
  1  2  1  0  0  0  0
  2  3  4  0  0  0  0
  3  4  4  0  0  0  0
  4  5  4  0  0  0  0
  5  6  4  0  0  0  0
  6  7  4  0  0  0  0
  2  7  4  0  0  0  0
  7  8  1  0  0  0  0
  8  9  1  0  0  0  0
  9 10  2  0  0  0  0
  9 11  1  0  0  0  0
 11 12  4  0  0  0  0
 12 13  4  0  0  0  0
 13 14  1  0  0  0  0
 13 15  4  0  0  0  0
 15 16  1  0  0  0  0
 16 17  4  0  0  0  0
 17 18  4  0  0  0  0
 18 19  4  0  0  0  0
 19 20  4  0  0  0  0
 16 20  4  0  0  0  0
 20 21  2  0  0  0  0
 19 22  1  0  0  0  0
 22 23  1  0  0  0  0
 23 24  1  0  0  0  0
 24 25  1  0  0  0  0
 18 25  1  0  0  0  0
 15 26  4  0  0  0  0
 26 27  4  0  0  0  0
 11 27  4  0  0  0  0
 27 28  1  0  0  0  0
 28 29  1  0  0  0  0
 29 30  1  0  0  0  0
 29 31  1  0  0  0  0
 31 32  1  0  0  0  0
 32 33  1  0  0  0  0
 33 34  1  0  0  0  0
 34 35  1  0  0  0  0
 35 36  1  0  0  0  0
 31 36  1  0  0  0  0
M  END
> <IC50(uM)>
0.075

> <Outcome>
1.0

> <BindingDB ID>
1020517

> <BindingDB MonomerID>
490465

> <BindingDB Ligand Name>
2-[(1S)-1-cyclohexylethoxy]-5-fluoro-N-(3-methylpyrazin-2-yl)-4-(3-oxo-5,6,7,8-tetrahydro[1,2,4]triazolo[4,3-a]pyridin-2(3H)-yl)benzamide::US10968216, Example 133

> <Curation/DataSource>
US Patent

> <Article DOI>
?

> <PMID>
?

> <Patent Number>
US10968216

> <Authors>
Gradl, SN; Nguyen, D; Eis, K; Gunther, J; Stellfeld, T; Janzer, A; Christian, S; Mueller, T; Sheikh, SE; Zhou, HJ; Zhao, C; Sykes, DB; Ferrara, SJ; Liu, K; Herbert, SA; Merz, C; Niehues, M; Nising, CF; Schafer, M; Zimmermann, K; Knablein, J; Thede, K; Faupel, T

> <Link to Ligand in BindingDB>
http://www.bindingdb.org/bind/chemsearch/marvin/MolStructure.jsp?monomerid=490465

> <Link to Ligand-Target Pair in BindingDB>
http://www.bindingdb.org/jsp/dbsearch/PrimarySearch_ki.jsp?energyterm=kJ/mole&tag=r21&monomerid=490465&enzyme=Dihydroorotate+dehydrogenase&column=ki&startPg=0&Increment=50&submit=Search

> <PubChem CID>
134473980

> <PubChem SID>
447117192

$$$$

  Mrv2115 07222212352D          

 27 30  0  0  0  0            999 V2000
   -0.1712   -0.6979    0.0000 C   0  0  0  0  0  0  0  0  0  0  0  0
    0.6538   -0.6979    0.0000 C   0  0  0  0  0  0  0  0  0  0  0  0
    1.1387   -0.0305    0.0000 N   0  0  0  0  0  0  0  0  0  0  0  0
    1.9233   -0.2854    0.0000 C   0  0  0  0  0  0  0  0  0  0  0  0
    2.6378    0.1271    0.0000 C   0  0  0  0  0  0  0  0  0  0  0  0
    2.6378    0.9521    0.0000 C   0  0  0  0  0  0  0  0  0  0  0  0
    3.3523    1.3646    0.0000 O   0  0  0  0  0  0  0  0  0  0  0  0
    1.9233    1.3646    0.0000 O   0  0  0  0  0  0  0  0  0  0  0  0
    3.3523   -0.2854    0.0000 C   0  0  0  0  0  0  0  0  0  0  0  0
    3.3523   -1.1104    0.0000 C   0  0  0  0  0  0  0  0  0  0  0  0
    4.0668   -1.5229    0.0000 C   0  0  0  0  0  0  0  0  0  0  0  0
    4.7812   -1.1104    0.0000 C   0  0  0  0  0  0  0  0  0  0  0  0
    5.4957   -1.5229    0.0000 C   0  0  0  0  0  0  0  0  0  0  0  0
    5.4957   -2.3479    0.0000 C   0  0  0  0  0  0  0  0  0  0  0  0
    6.2102   -2.7604    0.0000 C   0  0  0  0  0  0  0  0  0  0  0  0
    6.9246   -2.3479    0.0000 C   0  0  0  0  0  0  0  0  0  0  0  0
    7.6391   -2.7604    0.0000 C   0  0  0  0  0  0  0  0  0  0  0  0
    7.6391   -3.5854    0.0000 C   0  0  0  0  0  0  0  0  0  0  0  0
    6.9246   -3.9979    0.0000 C   0  0  0  0  0  0  0  0  0  0  0  0
    6.9246   -4.8229    0.0000 C   0  0  0  0  0  0  0  0  0  0  0  0
    7.6391   -5.2354    0.0000 O   0  0  0  0  0  0  0  0  0  0  0  0
    6.2102   -3.5854    0.0000 C   0  0  0  0  0  0  0  0  0  0  0  0
    4.7812   -2.7604    0.0000 C   0  0  0  0  0  0  0  0  0  0  0  0
    4.0668   -2.3479    0.0000 C   0  0  0  0  0  0  0  0  0  0  0  0
    2.6378   -1.5229    0.0000 C   0  0  0  0  0  0  0  0  0  0  0  0
    1.9233   -1.1104    0.0000 C   0  0  0  0  0  0  0  0  0  0  0  0
    1.1387   -1.3654    0.0000 N   0  0  0  0  0  0  0  0  0  0  0  0
  1  2  1  0  0  0  0
  2  3  4  0  0  0  0
  3  4  4  0  0  0  0
  4  5  4  0  0  0  0
  5  6  1  0  0  0  0
  6  7  2  0  0  0  0
  6  8  1  0  0  0  0
  5  9  4  0  0  0  0
  9 10  4  0  0  0  0
 10 11  1  0  0  0  0
 11 12  4  0  0  0  0
 12 13  4  0  0  0  0
 13 14  4  0  0  0  0
 14 15  1  0  0  0  0
 15 16  4  0  0  0  0
 16 17  4  0  0  0  0
 17 18  4  0  0  0  0
 18 19  4  0  0  0  0
 19 20  1  0  0  0  0
 20 21  1  0  0  0  0
 19 22  4  0  0  0  0
 15 22  4  0  0  0  0
 14 23  4  0  0  0  0
 23 24  4  0  0  0  0
 11 24  4  0  0  0  0
 10 25  4  0  0  0  0
 25 26  4  0  0  0  0
  4 26  4  0  0  0  0
 26 27  4  0  0  0  0
  2 27  4  0  0  0  0
M  STY  1   1 DAT
M  SAL   1  1  27
M  SDT   1 MRV_IMPLICIT_H                                        
M  SDD   1     0.5304   -0.4125    DR    ALL  0       0  
M  SED   1 IMPL_H1
M  END
> <IC50(uM)>
0.055

> <Outcome>
1.0

> <BindingDB ID>
1045612

> <BindingDB MonomerID>
501670

> <BindingDB Ligand Name>
US11028054, Example 90

> <Curation/DataSource>
US Patent

> <Article DOI>
?

> <PMID>
?

> <Patent Number>
US11028054

> <Authors>
Thunuguntla, SS; Hosahalli, S; Panigrahi, SK; Schwarz, M; Arit, M

> <Link to Ligand in BindingDB>
http://www.bindingdb.org/bind/chemsearch/marvin/MolStructure.jsp?monomerid=501670

> <Link to Ligand-Target Pair in BindingDB>
http://www.bindingdb.org/jsp/dbsearch/PrimarySearch_ki.jsp?energyterm=kJ/mole&tag=r21&monomerid=501670&enzyme=Dihydroorotate+dehydrogenase&column=ki&startPg=0&Increment=50&submit=Search

> <PubChem CID>
?

> <PubChem SID>
?

$$$$

  Mrv2115 07222212352D          

 29 32  0  0  0  0            999 V2000
    3.9934    2.4750    0.0000 O   0  0  0  0  0  0  0  0  0  0  0  0
    3.2789    2.0625    0.0000 C   0  0  0  0  0  0  0  0  0  0  0  0
    2.5645    2.4750    0.0000 O   0  0  0  0  0  0  0  0  0  0  0  0
    3.2789    1.2375    0.0000 C   0  0  0  0  0  0  0  0  0  0  0  0
    3.9934    0.8250    0.0000 C   0  0  0  0  0  0  0  0  0  0  0  0
    3.9934    0.0000    0.0000 C   0  0  0  0  0  0  0  0  0  0  0  0
    3.2789   -0.4125    0.0000 C   0  0  0  0  0  0  0  0  0  0  0  0
    2.5645    0.0000    0.0000 C   0  0  0  0  0  0  0  0  0  0  0  0
    1.7798   -0.2549    0.0000 N   0  0  0  0  0  0  0  0  0  0  0  0
    1.2949    0.4125    0.0000 C   0  0  0  0  0  0  0  0  0  0  0  0
    0.4699    0.4125    0.0000 C   0  0  0  0  0  0  0  0  0  0  0  0
    0.0574   -0.3020    0.0000 C   0  0  0  0  0  0  0  0  0  0  0  0
    0.4699   -1.0164    0.0000 F   0  0  0  0  0  0  0  0  0  0  0  0
   -0.7676   -0.3020    0.0000 C   0  0  0  0  0  0  0  0  0  0  0  0
   -1.1801   -1.0164    0.0000 F   0  0  0  0  0  0  0  0  0  0  0  0
   -1.1801    0.4125    0.0000 C   0  0  0  0  0  0  0  0  0  0  0  0
   -2.0051    0.4125    0.0000 C   0  0  0  0  0  0  0  0  0  0  0  0
   -2.4176   -0.3020    0.0000 C   0  0  0  0  0  0  0  0  0  0  0  0
   -3.2426   -0.3020    0.0000 C   0  0  0  0  0  0  0  0  0  0  0  0
   -3.6551    0.4125    0.0000 C   0  0  0  0  0  0  0  0  0  0  0  0
   -3.2426    1.1270    0.0000 C   0  0  0  0  0  0  0  0  0  0  0  0
   -2.4176    1.1270    0.0000 C   0  0  0  0  0  0  0  0  0  0  0  0
   -2.0051    1.8414    0.0000 F   0  0  0  0  0  0  0  0  0  0  0  0
   -0.7676    1.1270    0.0000 C   0  0  0  0  0  0  0  0  0  0  0  0
   -1.1801    1.8414    0.0000 F   0  0  0  0  0  0  0  0  0  0  0  0
    0.0574    1.1270    0.0000 C   0  0  0  0  0  0  0  0  0  0  0  0
    0.4699    1.8414    0.0000 F   0  0  0  0  0  0  0  0  0  0  0  0
    1.7798    1.0799    0.0000 N   0  0  0  0  0  0  0  0  0  0  0  0
    2.5645    0.8250    0.0000 C   0  0  0  0  0  0  0  0  0  0  0  0
  1  2  2  0  0  0  0
  2  3  1  0  0  0  0
  2  4  1  0  0  0  0
  4  5  4  0  0  0  0
  5  6  4  0  0  0  0
  6  7  4  0  0  0  0
  7  8  4  0  0  0  0
  8  9  4  0  0  0  0
  9 10  4  0  0  0  0
 10 11  1  0  0  0  0
 11 12  4  0  0  0  0
 12 13  1  0  0  0  0
 12 14  4  0  0  0  0
 14 15  1  0  0  0  0
 14 16  4  0  0  0  0
 16 17  1  0  0  0  0
 17 18  4  0  0  0  0
 18 19  4  0  0  0  0
 19 20  4  0  0  0  0
 20 21  4  0  0  0  0
 21 22  4  0  0  0  0
 17 22  4  0  0  0  0
 22 23  1  0  0  0  0
 16 24  4  0  0  0  0
 24 25  1  0  0  0  0
 24 26  4  0  0  0  0
 11 26  4  0  0  0  0
 26 27  1  0  0  0  0
 10 28  4  0  0  0  0
 28 29  4  0  0  0  0
  4 29  4  0  0  0  0
  8 29  4  0  0  0  0
M  STY  1   1 DAT
M  SAL   1  1   9
M  SDT   1 MRV_IMPLICIT_H                                        
M  SDD   1     0.5304   -0.4125    DR    ALL  0       0  
M  SED   1 IMPL_H1
M  END
> <IC50(uM)>
0.018

> <Outcome>
1.0

> <BindingDB ID>
297833

> <BindingDB MonomerID>
155489

> <BindingDB Ligand Name>
US9006454, I131

> <Curation/DataSource>
US Patent

> <Article DOI>
?

> <PMID>
?

> <Patent Number>
US9006454

> <Authors>
Thunuguntla, SS; Subramanya, H; Kunnam, SR; Sanivaru Vijay, SR; Bingi, C; Kusanur, R; Schwarz, M; Arlt, M

> <Link to Ligand in BindingDB>
http://www.bindingdb.org/bind/chemsearch/marvin/MolStructure.jsp?monomerid=155489

> <Link to Ligand-Target Pair in BindingDB>
http://www.bindingdb.org/jsp/dbsearch/PrimarySearch_ki.jsp?energyterm=kJ/mole&tag=r21&monomerid=155489&enzyme=Dihydroorotate+dehydrogenase&column=ki&startPg=0&Increment=50&submit=Search

> <PubChem CID>
58073808

> <PubChem SID>
253658426

$$$$

  Mrv2115 07222212352D          

 23 25  0  0  0  0            999 V2000
    4.0668    2.3479    0.0000 C   0  0  0  0  0  0  0  0  0  0  0  0
    3.3523    1.9354    0.0000 C   0  0  0  0  0  0  0  0  0  0  0  0
    3.3523    1.1104    0.0000 C   0  0  0  0  0  0  0  0  0  0  0  0
    2.6378    0.6979    0.0000 C   0  0  0  0  0  0  0  0  0  0  0  0
    2.6378   -0.1271    0.0000 N   0  0  0  0  0  0  0  0  0  0  0  0
    1.9233   -0.5396    0.0000 C   0  0  0  0  0  0  0  0  0  0  0  0
    1.9233   -1.3646    0.0000 C   0  0  0  0  0  0  0  0  0  0  0  0
    1.2089   -1.7771    0.0000 C   0  0  0  0  0  0  0  0  0  0  0  0
    1.2089   -2.6021    0.0000 F   0  0  0  0  0  0  0  0  0  0  0  0
    0.4944   -1.3646    0.0000 C   0  0  0  0  0  0  0  0  0  0  0  0
   -0.2201   -1.7771    0.0000 C   0  0  0  0  0  0  0  0  0  0  0  0
   -0.9345   -2.1896    0.0000 F   0  0  0  0  0  0  0  0  0  0  0  0
   -0.6326   -1.0626    0.0000 F   0  0  0  0  0  0  0  0  0  0  0  0
    0.1924   -2.4915    0.0000 F   0  0  0  0  0  0  0  0  0  0  0  0
    0.4944   -0.5396    0.0000 C   0  0  0  0  0  0  0  0  0  0  0  0
   -0.2201   -0.1271    0.0000 F   0  0  0  0  0  0  0  0  0  0  0  0
    1.2089   -0.1271    0.0000 C   0  0  0  0  0  0  0  0  0  0  0  0
    1.9233    1.1104    0.0000 N   0  0  0  0  0  0  0  0  0  0  0  0
    1.1387    0.8555    0.0000 N   0  0  0  0  0  0  0  0  0  0  0  0
    0.6538    1.5229    0.0000 C   0  0  0  0  0  0  0  0  0  0  0  0
    1.1387    2.1904    0.0000 N   0  0  0  0  0  0  0  0  0  0  0  0
    1.9233    1.9354    0.0000 C   0  0  0  0  0  0  0  0  0  0  0  0
    2.6378    2.3479    0.0000 N   0  0  0  0  0  0  0  0  0  0  0  0
  1  2  1  0  0  0  0
  2  3  4  0  0  0  0
  3  4  4  0  0  0  0
  4  5  1  0  0  0  0
  5  6  1  0  0  0  0
  6  7  4  0  0  0  0
  7  8  4  0  0  0  0
  8  9  1  0  0  0  0
  8 10  4  0  0  0  0
 10 11  1  0  0  0  0
 11 12  1  0  0  0  0
 11 13  1  0  0  0  0
 11 14  1  0  0  0  0
 10 15  4  0  0  0  0
 15 16  1  0  0  0  0
 15 17  4  0  0  0  0
  6 17  4  0  0  0  0
  4 18  4  0  0  0  0
 18 19  4  0  0  0  0
 19 20  4  0  0  0  0
 20 21  4  0  0  0  0
 21 22  4  0  0  0  0
 18 22  4  0  0  0  0
 22 23  4  0  0  0  0
  2 23  4  0  0  0  0
M  END
> <IC50(uM)>
53.33333333333333

> <Outcome>
0.0

> <BindingDB ID>
51327343; 50643209; 50102124

> <BindingDB MonomerID>
50345442

> <BindingDB Ligand Name>
CHEMBL1784577::N-(3,5-Difluoro-4-(trifluoromethyl)phenyl)-5-methyl-[1,2,4]triazolo[1,5-a]pyrimidin-7-amine::US9238653, Table 5, Compound 13

> <Curation/DataSource>
ChEMBL

> <Article DOI>
10.1016/j.ejmech.2019.01.027; 10.1021/jm200265b; 10.1021/jm500481t

> <PMID>
30703745; 21517059; 24801997

> <Patent Number>
?

> <Authors>
Oukoloff, K; Lucero, B; Francisco, KR; Brunden, KR; Ballatore, C; Gujjar, R; El Mazouni, F; White, KL; White, J; Creason, S; Shackleford, DM; Deng, X; Charman, WN; Bathurst, I; Burrows, J; Floyd, DM; Matthews, D; Buckner, FS; Charman, SA; Phillips, MA; Rathod, PK; Deng, X; Kokkonda, S; El Mazouni, F; White, J; Burrows, JN; Kaminsky, W; Charman, SA; Matthews, D; Rathod, PK; Phillips, MA

> <Link to Ligand in BindingDB>
http://www.bindingdb.org/bind/chemsearch/marvin/MolStructure.jsp?monomerid=50345442

> <Link to Ligand-Target Pair in BindingDB>
http://www.bindingdb.org/jsp/dbsearch/PrimarySearch_ki.jsp?energyterm=kJ/mole&tag=r21&monomerid=50345442&enzyme=Dihydroorotate+dehydrogenase&column=ki&startPg=0&Increment=50&submit=Search

> <PubChem CID>
51347104

> <PubChem SID>
131348378

$$$$

  Mrv2115 07222212352D          

 36 39  0  0  0  0            999 V2000
    0.5412   -5.1890    0.0000 C   0  0  0  0  0  0  0  0  0  0  0  0
    1.1543   -5.7410    0.0000 C   0  0  0  0  0  0  0  0  0  0  0  0
    1.9389   -5.4861    0.0000 N   0  0  0  0  0  0  0  0  0  0  0  0
    2.6063   -5.9710    0.0000 C   0  0  0  0  0  0  0  0  0  0  0  0
    2.6063   -6.7960    0.0000 C   0  0  0  0  0  0  0  0  0  0  0  0
    3.0188   -7.5105    0.0000 C   0  0  0  0  0  0  0  0  0  0  0  0
    2.1938   -7.5105    0.0000 C   0  0  0  0  0  0  0  0  0  0  0  0
    3.2738   -5.4861    0.0000 N   0  0  0  0  0  0  0  0  0  0  0  0
    3.0188   -4.7015    0.0000 N   0  0  0  0  0  0  0  0  0  0  0  0
    3.5038   -4.0340    0.0000 C   0  0  0  0  0  0  0  0  0  0  0  0
    3.1682   -3.2804    0.0000 C   0  0  0  0  0  0  0  0  0  0  0  0
    3.6531   -2.6129    0.0000 C   0  0  0  0  0  0  0  0  0  0  0  0
    3.3176   -1.8592    0.0000 O   0  0  0  0  0  0  0  0  0  0  0  0
    2.4971   -1.7730    0.0000 C   0  0  0  0  0  0  0  0  0  0  0  0
    2.0122   -2.4404    0.0000 C   0  0  0  0  0  0  0  0  0  0  0  0
    2.1615   -1.0193    0.0000 C   0  0  0  0  0  0  0  0  0  0  0  0
    2.9152   -0.6838    0.0000 F   0  0  0  0  0  0  0  0  0  0  0  0
    1.4079   -1.3549    0.0000 F   0  0  0  0  0  0  0  0  0  0  0  0
    1.8260   -0.2657    0.0000 F   0  0  0  0  0  0  0  0  0  0  0  0
    4.4736   -2.6992    0.0000 C   0  0  0  0  0  0  0  0  0  0  0  0
    4.9585   -2.0317    0.0000 C   0  0  0  0  0  0  0  0  0  0  0  0
    5.7790   -2.1180    0.0000 O   0  0  0  0  0  0  0  0  0  0  0  0
    4.6230   -1.2780    0.0000 N   0  0  0  0  0  0  0  0  0  0  0  0
    5.1079   -0.6106    0.0000 C   0  0  0  0  0  0  0  0  0  0  0  0
    4.7723    0.1431    0.0000 C   0  0  0  0  0  0  0  0  0  0  0  0
    3.9519    0.2293    0.0000 F   0  0  0  0  0  0  0  0  0  0  0  0
    5.2573    0.8105    0.0000 C   0  0  0  0  0  0  0  0  0  0  0  0
    6.0777    0.7243    0.0000 C   0  0  0  0  0  0  0  0  0  0  0  0
    6.4133   -0.0294    0.0000 C   0  0  0  0  0  0  0  0  0  0  0  0
    5.9284   -0.6968    0.0000 C   0  0  0  0  0  0  0  0  0  0  0  0
    6.2639   -1.4505    0.0000 F   0  0  0  0  0  0  0  0  0  0  0  0
    4.8092   -3.4528    0.0000 C   0  0  0  0  0  0  0  0  0  0  0  0
    4.3242   -4.1203    0.0000 C   0  0  0  0  0  0  0  0  0  0  0  0
    4.6598   -4.8739    0.0000 F   0  0  0  0  0  0  0  0  0  0  0  0
    2.1938   -4.7015    0.0000 C   0  0  0  0  0  0  0  0  0  0  0  0
    1.7089   -4.0340    0.0000 O   0  0  0  0  0  0  0  0  0  0  0  0
  1  2  1  0  0  0  0
  2  3  1  0  0  0  0
  3  4  4  0  0  0  0
  4  5  1  0  0  0  0
  5  6  1  0  0  0  0
  6  7  1  0  0  0  0
  5  7  1  0  0  0  0
  4  8  4  0  0  0  0
  8  9  4  0  0  0  0
  9 10  1  0  0  0  0
 10 11  4  0  0  0  0
 11 12  4  0  0  0  0
 12 13  1  0  0  0  0
 13 14  1  0  0  0  0
 14 15  1  0  0  0  0
 14 16  1  0  0  0  0
 16 17  1  0  0  0  0
 16 18  1  0  0  0  0
 16 19  1  0  0  0  0
 12 20  4  0  0  0  0
 20 21  1  0  0  0  0
 21 22  2  0  0  0  0
 21 23  1  0  0  0  0
 23 24  1  0  0  0  0
 24 25  4  0  0  0  0
 25 26  1  0  0  0  0
 25 27  4  0  0  0  0
 27 28  4  0  0  0  0
 28 29  4  0  0  0  0
 29 30  4  0  0  0  0
 24 30  4  0  0  0  0
 30 31  1  0  0  0  0
 20 32  4  0  0  0  0
 32 33  4  0  0  0  0
 10 33  4  0  0  0  0
 33 34  1  0  0  0  0
  9 35  4  0  0  0  0
  3 35  4  0  0  0  0
 35 36  2  0  0  0  0
M  END
> <IC50(uM)>
0.0125

> <Outcome>
1.0

> <BindingDB ID>
972519; 1098673

> <BindingDB MonomerID>
470394

> <BindingDB Ligand Name>
4-(3-cyclopropyl-4-ethyl-5-oxo-4,5-dihydro-1H-1,2,4-triazol-1-yl)-N-(2,6-difluorophenyl)-5-fluoro-2-{[(2S)-1,1,1-trifluoropropan-2-yl]oxy}benzamide::US10815215, Example 53; 4-(3-cyclopropyl-4-ethyl-5-oxo-4,5-dihydro-1H-1,2,4-triazol-1-yl)-N-(2,6-difluorophenyl)-5-fluoro-2-{[(2S)-1,1,1-trifluoropropan-2-yl]oxy}benzamide::US10815215, Example 53::US11130745, Example 53

> <Curation/DataSource>
US Patent

> <Article DOI>
?

> <PMID>
?

> <Patent Number>
US10815215; US11130745

> <Authors>
Gradl, SN; Nguyen, D; Eis, K; Gunther, J; Stellfeld, T; Janzer, A; Christian, S; Muller, T; Sheikh, SE; Zhou, HJ; Zhao, C; Sykes, DB; Ferrara, SJ; Liu, K; Krober, M; Merz, C; Niehues, M; Schafer, M; Zimmermann, K; Nising, CF; Gradl, SN; Nguyen, D; Eis, K; Gunther, J; Stellfeld, T; Janzer, A; Christian, S; Muller, T; Sheikh, SE; Sykes, DB; Ferrara, SJ; Krober, M; Merz, C; Niehues, M; Schafer, M; Zimmermann, K; Nising, CF

> <Link to Ligand in BindingDB>
http://www.bindingdb.org/bind/chemsearch/marvin/MolStructure.jsp?monomerid=470394

> <Link to Ligand-Target Pair in BindingDB>
http://www.bindingdb.org/jsp/dbsearch/PrimarySearch_ki.jsp?energyterm=kJ/mole&tag=r21&monomerid=470394&enzyme=Dihydroorotate+dehydrogenase&column=ki&startPg=0&Increment=50&submit=Search

> <PubChem CID>
142335806

> <PubChem SID>
441609571

$$$$

  Mrv2115 07222212352D          

 37 40  0  0  0  0            999 V2000
    0.6334   -0.9989    0.0000 C   0  0  0  0  0  0  0  0  0  0  0  0
    0.2979   -1.7526    0.0000 C   0  0  0  0  0  0  0  0  0  0  0  0
   -0.5226   -1.8388    0.0000 O   0  0  0  0  0  0  0  0  0  0  0  0
   -0.8582   -2.5925    0.0000 C   0  0  0  0  0  0  0  0  0  0  0  0
   -0.3732   -3.2599    0.0000 C   0  0  0  0  0  0  0  0  0  0  0  0
   -0.7088   -4.0136    0.0000 C   0  0  0  0  0  0  0  0  0  0  0  0
   -0.2239   -4.6810    0.0000 N   0  0  0  0  0  0  0  0  0  0  0  0
    0.6011   -4.6810    0.0000 N   0  0  0  0  0  0  0  0  0  0  0  0
    0.8561   -5.4656    0.0000 C   0  0  0  0  0  0  0  0  0  0  0  0
    1.6407   -5.7206    0.0000 C   0  0  0  0  0  0  0  0  0  0  0  0
    1.8122   -6.5276    0.0000 O   0  0  0  0  0  0  0  0  0  0  0  0
    0.1886   -5.9506    0.0000 N   0  0  0  0  0  0  0  0  0  0  0  0
    0.1886   -6.7756    0.0000 C   0  0  0  0  0  0  0  0  0  0  0  0
    0.7720   -7.3589    0.0000 C   0  0  0  0  0  0  0  0  0  0  0  0
    0.1886   -7.9423    0.0000 C   0  0  0  0  0  0  0  0  0  0  0  0
   -0.3947   -7.3589    0.0000 C   0  0  0  0  0  0  0  0  0  0  0  0
   -0.4788   -5.4656    0.0000 C   0  0  0  0  0  0  0  0  0  0  0  0
   -1.2634   -5.7206    0.0000 O   0  0  0  0  0  0  0  0  0  0  0  0
   -1.5293   -4.0998    0.0000 C   0  0  0  0  0  0  0  0  0  0  0  0
   -1.8648   -4.8535    0.0000 F   0  0  0  0  0  0  0  0  0  0  0  0
   -2.0142   -3.4324    0.0000 C   0  0  0  0  0  0  0  0  0  0  0  0
   -1.6786   -2.6787    0.0000 C   0  0  0  0  0  0  0  0  0  0  0  0
   -2.1636   -2.0113    0.0000 C   0  0  0  0  0  0  0  0  0  0  0  0
   -1.8280   -1.2576    0.0000 O   0  0  0  0  0  0  0  0  0  0  0  0
   -2.9840   -2.0975    0.0000 N   0  0  0  0  0  0  0  0  0  0  0  0
   -3.4690   -1.4301    0.0000 C   0  0  0  0  0  0  0  0  0  0  0  0
   -4.2894   -1.5163    0.0000 C   0  0  0  0  0  0  0  0  0  0  0  0
   -4.6250   -2.2700    0.0000 F   0  0  0  0  0  0  0  0  0  0  0  0
   -4.7744   -0.8489    0.0000 C   0  0  0  0  0  0  0  0  0  0  0  0
   -4.4388   -0.0952    0.0000 C   0  0  0  0  0  0  0  0  0  0  0  0
   -3.6183   -0.0090    0.0000 C   0  0  0  0  0  0  0  0  0  0  0  0
   -3.1334   -0.6764    0.0000 C   0  0  0  0  0  0  0  0  0  0  0  0
   -2.3129   -0.5902    0.0000 Cl  0  0  0  0  0  0  0  0  0  0  0  0
    0.7828   -2.4200    0.0000 C   0  0  0  0  0  0  0  0  0  0  0  0
    0.1154   -2.9049    0.0000 F   0  0  0  0  0  0  0  0  0  0  0  0
    1.4502   -1.9351    0.0000 F   0  0  0  0  0  0  0  0  0  0  0  0
    1.2677   -3.0874    0.0000 F   0  0  0  0  0  0  0  0  0  0  0  0
  1  2  1  0  0  0  0
  2  3  1  0  0  0  0
  3  4  1  0  0  0  0
  4  5  4  0  0  0  0
  5  6  4  0  0  0  0
  6  7  1  0  0  0  0
  7  8  4  0  0  0  0
  8  9  4  0  0  0  0
  9 10  1  0  0  0  0
 10 11  1  0  0  0  0
  9 12  4  0  0  0  0
 12 13  1  0  0  0  0
 13 14  1  0  0  0  0
 14 15  1  0  0  0  0
 15 16  1  0  0  0  0
 13 16  1  0  0  0  0
 12 17  4  0  0  0  0
  7 17  4  0  0  0  0
 17 18  2  0  0  0  0
  6 19  4  0  0  0  0
 19 20  1  0  0  0  0
 19 21  4  0  0  0  0
 21 22  4  0  0  0  0
  4 22  4  0  0  0  0
 22 23  1  0  0  0  0
 23 24  2  0  0  0  0
 23 25  1  0  0  0  0
 25 26  1  0  0  0  0
 26 27  4  0  0  0  0
 27 28  1  0  0  0  0
 27 29  4  0  0  0  0
 29 30  4  0  0  0  0
 30 31  4  0  0  0  0
 31 32  4  0  0  0  0
 26 32  4  0  0  0  0
 32 33  1  0  0  0  0
  2 34  1  0  0  0  0
 34 35  1  0  0  0  0
 34 36  1  0  0  0  0
 34 37  1  0  0  0  0
M  END
> <IC50(uM)>
0.007

> <Outcome>
1.0

> <BindingDB ID>
972645; 1098799

> <BindingDB MonomerID>
470523

> <BindingDB Ligand Name>
N-(2-chloro-6-fluorophenyl)-4-[4-cyclobutyl-3-(hydroxymethyl)-5-oxo-4,5-dihydro-1H-1,2,4-triazol-1-yl]-5-fluoro-2-{[(2S)-1,1,1-trifluoropropan-2-yl]oxy}benzamide::US10815215, Example 183; N-(2-chloro-6-fluorophenyl)-4-[4-cyclobutyl-3-(hydroxymethyl)-5-oxo-4,5-dihydro-1H-1,2,4-triazol-1-yl]-5-fluoro-2-{[(2S)-1,1,1-trifluoropropan-2-yl]oxy}benzamide::US10815215, Example 183::US11130745, Example 183

> <Curation/DataSource>
US Patent

> <Article DOI>
?

> <PMID>
?

> <Patent Number>
US10815215; US11130745

> <Authors>
Gradl, SN; Nguyen, D; Eis, K; Gunther, J; Stellfeld, T; Janzer, A; Christian, S; Muller, T; Sheikh, SE; Zhou, HJ; Zhao, C; Sykes, DB; Ferrara, SJ; Liu, K; Krober, M; Merz, C; Niehues, M; Schafer, M; Zimmermann, K; Nising, CF; Gradl, SN; Nguyen, D; Eis, K; Gunther, J; Stellfeld, T; Janzer, A; Christian, S; Muller, T; Sheikh, SE; Sykes, DB; Ferrara, SJ; Krober, M; Merz, C; Niehues, M; Schafer, M; Zimmermann, K; Nising, CF

> <Link to Ligand in BindingDB>
http://www.bindingdb.org/bind/chemsearch/marvin/MolStructure.jsp?monomerid=470523

> <Link to Ligand-Target Pair in BindingDB>
http://www.bindingdb.org/jsp/dbsearch/PrimarySearch_ki.jsp?energyterm=kJ/mole&tag=r21&monomerid=470523&enzyme=Dihydroorotate+dehydrogenase&column=ki&startPg=0&Increment=50&submit=Search

> <PubChem CID>
142335814

> <PubChem SID>
441609699

$$$$

  Mrv2115 07222212352D          

 36 39  0  0  0  0            999 V2000
   -4.3409    1.4455    0.0000 C   0  0  0  0  0  0  0  0  0  0  0  0
   -5.1659    1.4455    0.0000 O   0  0  0  0  0  0  0  0  0  0  0  0
   -5.5784    0.7310    0.0000 C   0  0  0  0  0  0  0  0  0  0  0  0
   -6.4034    0.7310    0.0000 N   0  0  0  0  0  0  0  0  0  0  0  0
   -6.8159    0.0165    0.0000 C   0  0  0  0  0  0  0  0  0  0  0  0
   -6.4034   -0.6979    0.0000 C   0  0  0  0  0  0  0  0  0  0  0  0
   -5.5784   -0.6979    0.0000 C   0  0  0  0  0  0  0  0  0  0  0  0
   -5.1659   -1.4124    0.0000 C   0  0  0  0  0  0  0  0  0  0  0  0
   -5.1659    0.0165    0.0000 C   0  0  0  0  0  0  0  0  0  0  0  0
   -4.3409    0.0165    0.0000 N   0  0  0  0  0  0  0  0  0  0  0  0
   -3.9284   -0.6979    0.0000 C   0  0  0  0  0  0  0  0  0  0  0  0
   -4.3409   -1.4124    0.0000 O   0  0  0  0  0  0  0  0  0  0  0  0
   -3.1034   -0.6979    0.0000 C   0  0  0  0  0  0  0  0  0  0  0  0
   -2.6909    0.0165    0.0000 C   0  0  0  0  0  0  0  0  0  0  0  0
   -1.8659    0.0165    0.0000 C   0  0  0  0  0  0  0  0  0  0  0  0
   -1.4534    0.7310    0.0000 Cl  0  0  0  0  0  0  0  0  0  0  0  0
   -1.4534   -0.6979    0.0000 C   0  0  0  0  0  0  0  0  0  0  0  0
   -0.6284   -0.6979    0.0000 N   0  0  0  0  0  0  0  0  0  0  0  0
   -0.1435   -1.3654    0.0000 N   0  0  0  0  0  0  0  0  0  0  0  0
    0.6411   -1.1104    0.0000 C   0  0  0  0  0  0  0  0  0  0  0  0
    0.6411   -0.2854    0.0000 N   0  0  0  0  0  0  0  0  0  0  0  0
   -0.1435   -0.0305    0.0000 C   0  0  0  0  0  0  0  0  0  0  0  0
   -0.3984    0.7541    0.0000 O   0  0  0  0  0  0  0  0  0  0  0  0
    1.3556    0.1271    0.0000 C   0  0  0  0  0  0  0  0  0  0  0  0
    2.0701   -0.2854    0.0000 C   0  0  0  0  0  0  0  0  0  0  0  0
    2.0701   -1.1104    0.0000 C   0  0  0  0  0  0  0  0  0  0  0  0
    1.3556   -1.5229    0.0000 C   0  0  0  0  0  0  0  0  0  0  0  0
   -1.8659   -1.4124    0.0000 C   0  0  0  0  0  0  0  0  0  0  0  0
   -2.6909   -1.4124    0.0000 C   0  0  0  0  0  0  0  0  0  0  0  0
   -3.1034   -2.1269    0.0000 O   0  0  0  0  0  0  0  0  0  0  0  0
   -2.6909   -2.8414    0.0000 C   0  0  0  0  0  0  0  0  0  0  0  0
   -1.8659   -2.8414    0.0000 C   0  0  0  0  0  0  0  0  0  0  0  0
   -3.1034   -3.5558    0.0000 C   0  0  0  0  0  0  0  0  0  0  0  0
   -3.8179   -3.1433    0.0000 F   0  0  0  0  0  0  0  0  0  0  0  0
   -2.3890   -3.9683    0.0000 F   0  0  0  0  0  0  0  0  0  0  0  0
   -3.5159   -4.2703    0.0000 F   0  0  0  0  0  0  0  0  0  0  0  0
  1  2  1  0  0  0  0
  2  3  1  0  0  0  0
  3  4  4  0  0  0  0
  4  5  4  0  0  0  0
  5  6  4  0  0  0  0
  6  7  4  0  0  0  0
  7  8  1  0  0  0  0
  7  9  4  0  0  0  0
  3  9  4  0  0  0  0
  9 10  1  0  0  0  0
 10 11  1  0  0  0  0
 11 12  2  0  0  0  0
 11 13  1  0  0  0  0
 13 14  4  0  0  0  0
 14 15  4  0  0  0  0
 15 16  1  0  0  0  0
 15 17  4  0  0  0  0
 17 18  1  0  0  0  0
 18 19  4  0  0  0  0
 19 20  4  0  0  0  0
 20 21  4  0  0  0  0
 21 22  4  0  0  0  0
 18 22  4  0  0  0  0
 22 23  2  0  0  0  0
 21 24  1  0  0  0  0
 24 25  1  0  0  0  0
 25 26  1  0  0  0  0
 26 27  1  0  0  0  0
 20 27  1  0  0  0  0
 17 28  4  0  0  0  0
 28 29  4  0  0  0  0
 13 29  4  0  0  0  0
 29 30  1  0  0  0  0
 30 31  1  0  0  0  0
 31 32  1  0  0  0  0
 31 33  1  0  0  0  0
 33 34  1  0  0  0  0
 33 35  1  0  0  0  0
 33 36  1  0  0  0  0
M  END
> <IC50(uM)>
0.2

> <Outcome>
1.0

> <BindingDB ID>
1020693

> <BindingDB MonomerID>
490619

> <BindingDB Ligand Name>
5-chloro-N-(2-methoxy-4-methylpyridin-3-yl)-4-(3-oxo-5,6,7,8-tetrahydro[1,2,4]triazolo[4,3-a]-pyridin-2(3H)-yl)-2-{[(2S)-1,1,1-trifluoropropan-2-yl]oxy}benzamide::US10968216, Example 287

> <Curation/DataSource>
US Patent

> <Article DOI>
?

> <PMID>
?

> <Patent Number>
US10968216

> <Authors>
Gradl, SN; Nguyen, D; Eis, K; Gunther, J; Stellfeld, T; Janzer, A; Christian, S; Mueller, T; Sheikh, SE; Zhou, HJ; Zhao, C; Sykes, DB; Ferrara, SJ; Liu, K; Herbert, SA; Merz, C; Niehues, M; Nising, CF; Schafer, M; Zimmermann, K; Knablein, J; Thede, K; Faupel, T

> <Link to Ligand in BindingDB>
http://www.bindingdb.org/bind/chemsearch/marvin/MolStructure.jsp?monomerid=490619

> <Link to Ligand-Target Pair in BindingDB>
http://www.bindingdb.org/jsp/dbsearch/PrimarySearch_ki.jsp?energyterm=kJ/mole&tag=r21&monomerid=490619&enzyme=Dihydroorotate+dehydrogenase&column=ki&startPg=0&Increment=50&submit=Search

> <PubChem CID>
134474040

> <PubChem SID>
447117345

$$$$

  Mrv2115 07222212352D          

 30 33  0  0  0  0            999 V2000
    4.0668    2.3479    0.0000 C   0  0  0  0  0  0  0  0  0  0  0  0
    3.3523    1.9354    0.0000 C   0  0  0  0  0  0  0  0  0  0  0  0
    3.3523    1.1104    0.0000 C   0  0  0  0  0  0  0  0  0  0  0  0
    2.6378    0.6979    0.0000 C   0  0  0  0  0  0  0  0  0  0  0  0
    2.6378   -0.1271    0.0000 C   0  0  0  0  0  0  0  0  0  0  0  0
    1.9233   -0.5396    0.0000 O   0  0  0  0  0  0  0  0  0  0  0  0
    3.3523   -0.5396    0.0000 O   0  0  0  0  0  0  0  0  0  0  0  0
    1.9233    1.1104    0.0000 C   0  0  0  0  0  0  0  0  0  0  0  0
    1.1387    0.8555    0.0000 N   0  0  0  0  0  0  0  0  0  0  0  0
    0.6538    1.5229    0.0000 C   0  0  0  0  0  0  0  0  0  0  0  0
   -0.1712    1.5229    0.0000 C   0  0  0  0  0  0  0  0  0  0  0  0
   -0.5837    0.8085    0.0000 C   0  0  0  0  0  0  0  0  0  0  0  0
   -0.1712    0.0940    0.0000 F   0  0  0  0  0  0  0  0  0  0  0  0
   -1.4087    0.8085    0.0000 C   0  0  0  0  0  0  0  0  0  0  0  0
   -1.8212    0.0940    0.0000 F   0  0  0  0  0  0  0  0  0  0  0  0
   -1.8212    1.5229    0.0000 C   0  0  0  0  0  0  0  0  0  0  0  0
   -2.6462    1.5229    0.0000 N   0  0  0  0  0  0  0  0  0  0  0  0
   -3.1311    0.8555    0.0000 C   0  0  0  0  0  0  0  0  0  0  0  0
   -2.8762    0.0709    0.0000 C   0  0  0  0  0  0  0  0  0  0  0  0
   -3.9157    1.1104    0.0000 C   0  0  0  0  0  0  0  0  0  0  0  0
   -3.9157    1.9354    0.0000 C   0  0  0  0  0  0  0  0  0  0  0  0
   -3.1311    2.1904    0.0000 C   0  0  0  0  0  0  0  0  0  0  0  0
   -2.8762    2.9750    0.0000 C   0  0  0  0  0  0  0  0  0  0  0  0
   -1.4087    2.2374    0.0000 C   0  0  0  0  0  0  0  0  0  0  0  0
   -1.8212    2.9519    0.0000 F   0  0  0  0  0  0  0  0  0  0  0  0
   -0.5837    2.2374    0.0000 C   0  0  0  0  0  0  0  0  0  0  0  0
   -0.1712    2.9519    0.0000 F   0  0  0  0  0  0  0  0  0  0  0  0
    1.1387    2.1904    0.0000 N   0  0  0  0  0  0  0  0  0  0  0  0
    1.9233    1.9354    0.0000 C   0  0  0  0  0  0  0  0  0  0  0  0
    2.6378    2.3479    0.0000 C   0  0  0  0  0  0  0  0  0  0  0  0
  1  2  1  0  0  0  0
  2  3  4  0  0  0  0
  3  4  4  0  0  0  0
  4  5  1  0  0  0  0
  5  6  2  0  0  0  0
  5  7  1  0  0  0  0
  4  8  4  0  0  0  0
  8  9  4  0  0  0  0
  9 10  4  0  0  0  0
 10 11  1  0  0  0  0
 11 12  4  0  0  0  0
 12 13  1  0  0  0  0
 12 14  4  0  0  0  0
 14 15  1  0  0  0  0
 14 16  4  0  0  0  0
 16 17  1  0  0  0  0
 17 18  4  0  0  0  0
 18 19  1  0  0  0  0
 18 20  4  0  0  0  0
 20 21  4  0  0  0  0
 21 22  4  0  0  0  0
 17 22  4  0  0  0  0
 22 23  1  0  0  0  0
 16 24  4  0  0  0  0
 24 25  1  0  0  0  0
 24 26  4  0  0  0  0
 11 26  4  0  0  0  0
 26 27  1  0  0  0  0
 10 28  4  0  0  0  0
 28 29  4  0  0  0  0
  8 29  4  0  0  0  0
 29 30  4  0  0  0  0
  2 30  4  0  0  0  0
M  STY  1   1 DAT
M  SAL   1  1   9
M  SDT   1 MRV_IMPLICIT_H                                        
M  SDD   1     0.5304   -0.4125    DR    ALL  0       0  
M  SED   1 IMPL_H1
M  END
> <IC50(uM)>
0.0056

> <Outcome>
1.0

> <BindingDB ID>
297784

> <BindingDB MonomerID>
155440

> <BindingDB Ligand Name>
US9006454, I82

> <Curation/DataSource>
US Patent

> <Article DOI>
?

> <PMID>
?

> <Patent Number>
US9006454

> <Authors>
Thunuguntla, SS; Subramanya, H; Kunnam, SR; Sanivaru Vijay, SR; Bingi, C; Kusanur, R; Schwarz, M; Arlt, M

> <Link to Ligand in BindingDB>
http://www.bindingdb.org/bind/chemsearch/marvin/MolStructure.jsp?monomerid=155440

> <Link to Ligand-Target Pair in BindingDB>
http://www.bindingdb.org/jsp/dbsearch/PrimarySearch_ki.jsp?energyterm=kJ/mole&tag=r21&monomerid=155440&enzyme=Dihydroorotate+dehydrogenase&column=ki&startPg=0&Increment=50&submit=Search

> <PubChem CID>
46947570

> <PubChem SID>
253658377

$$$$

  Mrv2115 07222212352D          

 34 37  0  0  0  0            999 V2000
   -3.1034    2.1599    0.0000 C   0  0  0  0  0  0  0  0  0  0  0  0
   -2.6909    1.4455    0.0000 C   0  0  0  0  0  0  0  0  0  0  0  0
   -3.1034    0.7310    0.0000 O   0  0  0  0  0  0  0  0  0  0  0  0
   -2.6909    0.0165    0.0000 C   0  0  0  0  0  0  0  0  0  0  0  0
   -1.8659    0.0165    0.0000 C   0  0  0  0  0  0  0  0  0  0  0  0
   -1.4534   -0.6979    0.0000 C   0  0  0  0  0  0  0  0  0  0  0  0
   -0.6284   -0.6979    0.0000 N   0  0  0  0  0  0  0  0  0  0  0  0
   -0.1435   -1.3654    0.0000 N   0  0  0  0  0  0  0  0  0  0  0  0
    0.6411   -1.1104    0.0000 C   0  0  0  0  0  0  0  0  0  0  0  0
    0.6411   -0.2854    0.0000 N   0  0  0  0  0  0  0  0  0  0  0  0
   -0.1435   -0.0305    0.0000 C   0  0  0  0  0  0  0  0  0  0  0  0
   -0.3984    0.7541    0.0000 O   0  0  0  0  0  0  0  0  0  0  0  0
    1.3556    0.1271    0.0000 C   0  0  0  0  0  0  0  0  0  0  0  0
    2.0701   -0.2854    0.0000 C   0  0  0  0  0  0  0  0  0  0  0  0
    2.0701   -1.1104    0.0000 C   0  0  0  0  0  0  0  0  0  0  0  0
    1.3556   -1.5229    0.0000 C   0  0  0  0  0  0  0  0  0  0  0  0
   -1.8659   -1.4124    0.0000 C   0  0  0  0  0  0  0  0  0  0  0  0
   -1.4534   -2.1269    0.0000 F   0  0  0  0  0  0  0  0  0  0  0  0
   -2.6909   -1.4124    0.0000 C   0  0  0  0  0  0  0  0  0  0  0  0
   -3.1034   -0.6979    0.0000 C   0  0  0  0  0  0  0  0  0  0  0  0
   -3.9284   -0.6979    0.0000 C   0  0  0  0  0  0  0  0  0  0  0  0
   -4.3409    0.0165    0.0000 O   0  0  0  0  0  0  0  0  0  0  0  0
   -4.3409   -1.4124    0.0000 N   0  0  0  0  0  0  0  0  0  0  0  0
   -5.1659   -1.4124    0.0000 C   0  0  0  0  0  0  0  0  0  0  0  0
   -5.5784   -2.1269    0.0000 C   0  0  0  0  0  0  0  0  0  0  0  0
   -6.4034   -2.1269    0.0000 C   0  0  0  0  0  0  0  0  0  0  0  0
   -6.8159   -1.4124    0.0000 C   0  0  0  0  0  0  0  0  0  0  0  0
   -6.4034   -0.6979    0.0000 C   0  0  0  0  0  0  0  0  0  0  0  0
   -5.5784   -0.6979    0.0000 C   0  0  0  0  0  0  0  0  0  0  0  0
   -5.1659    0.0165    0.0000 Cl  0  0  0  0  0  0  0  0  0  0  0  0
   -1.8659    1.4455    0.0000 C   0  0  0  0  0  0  0  0  0  0  0  0
   -1.8659    0.6205    0.0000 F   0  0  0  0  0  0  0  0  0  0  0  0
   -1.8659    2.2705    0.0000 F   0  0  0  0  0  0  0  0  0  0  0  0
   -1.0409    1.4455    0.0000 F   0  0  0  0  0  0  0  0  0  0  0  0
  1  2  1  0  0  0  0
  2  3  1  0  0  0  0
  3  4  1  0  0  0  0
  4  5  4  0  0  0  0
  5  6  4  0  0  0  0
  6  7  1  0  0  0  0
  7  8  4  0  0  0  0
  8  9  4  0  0  0  0
  9 10  4  0  0  0  0
 10 11  4  0  0  0  0
  7 11  4  0  0  0  0
 11 12  2  0  0  0  0
 10 13  1  0  0  0  0
 13 14  1  0  0  0  0
 14 15  1  0  0  0  0
 15 16  1  0  0  0  0
  9 16  1  0  0  0  0
  6 17  4  0  0  0  0
 17 18  1  0  0  0  0
 17 19  4  0  0  0  0
 19 20  4  0  0  0  0
  4 20  4  0  0  0  0
 20 21  1  0  0  0  0
 21 22  2  0  0  0  0
 21 23  1  0  0  0  0
 23 24  1  0  0  0  0
 24 25  4  0  0  0  0
 25 26  4  0  0  0  0
 26 27  4  0  0  0  0
 27 28  4  0  0  0  0
 28 29  4  0  0  0  0
 24 29  4  0  0  0  0
 29 30  1  0  0  0  0
  2 31  1  0  0  0  0
 31 32  1  0  0  0  0
 31 33  1  0  0  0  0
 31 34  1  0  0  0  0
M  END
> <IC50(uM)>
0.017

> <Outcome>
1.0

> <BindingDB ID>
1020462

> <BindingDB MonomerID>
490410

> <BindingDB Ligand Name>
N-(2-chlorophenyl)-5-fluoro-4-(3-oxo-5,6,7,8-tetrahydro[1,2,4]triazolo[4,3-a]pyridin-2(3H)-yl)-2-{[(2S)-1,1,1-trifluoropropan-2-yl]oxy}benzamide::US10968216, Example 78

> <Curation/DataSource>
US Patent

> <Article DOI>
?

> <PMID>
?

> <Patent Number>
US10968216

> <Authors>
Gradl, SN; Nguyen, D; Eis, K; Gunther, J; Stellfeld, T; Janzer, A; Christian, S; Mueller, T; Sheikh, SE; Zhou, HJ; Zhao, C; Sykes, DB; Ferrara, SJ; Liu, K; Herbert, SA; Merz, C; Niehues, M; Nising, CF; Schafer, M; Zimmermann, K; Knablein, J; Thede, K; Faupel, T

> <Link to Ligand in BindingDB>
http://www.bindingdb.org/bind/chemsearch/marvin/MolStructure.jsp?monomerid=490410

> <Link to Ligand-Target Pair in BindingDB>
http://www.bindingdb.org/jsp/dbsearch/PrimarySearch_ki.jsp?energyterm=kJ/mole&tag=r21&monomerid=490410&enzyme=Dihydroorotate+dehydrogenase&column=ki&startPg=0&Increment=50&submit=Search

> <PubChem CID>
134474299

> <PubChem SID>
447117137

$$$$

  Mrv2115 07222212352D          

 27 30  0  0  0  0            999 V2000
    2.5559   -1.8243    0.0000 O   0  0  0  0  0  0  0  0  0  0  0  0
    2.5559   -2.6493    0.0000 C   0  0  0  0  0  0  0  0  0  0  0  0
    1.8414   -3.0618    0.0000 O   0  0  0  0  0  0  0  0  0  0  0  0
    3.2704   -3.0618    0.0000 C   0  0  0  0  0  0  0  0  0  0  0  0
    3.2704   -3.8868    0.0000 C   0  0  0  0  0  0  0  0  0  0  0  0
    3.9849   -4.2993    0.0000 C   0  0  0  0  0  0  0  0  0  0  0  0
    3.9849   -5.1243    0.0000 C   0  0  0  0  0  0  0  0  0  0  0  0
    4.3974   -5.8388    0.0000 C   0  0  0  0  0  0  0  0  0  0  0  0
    3.5724   -5.8388    0.0000 C   0  0  0  0  0  0  0  0  0  0  0  0
    4.6993   -3.8868    0.0000 C   0  0  0  0  0  0  0  0  0  0  0  0
    4.6993   -3.0618    0.0000 C   0  0  0  0  0  0  0  0  0  0  0  0
    3.9849   -2.6493    0.0000 C   0  0  0  0  0  0  0  0  0  0  0  0
    3.9849   -1.8243    0.0000 N   0  0  0  0  0  0  0  0  0  0  0  0
    4.6993   -1.4118    0.0000 C   0  0  0  0  0  0  0  0  0  0  0  0
    4.6993   -0.5868    0.0000 C   0  0  0  0  0  0  0  0  0  0  0  0
    5.4138   -0.1743    0.0000 N   0  0  0  0  0  0  0  0  0  0  0  0
    6.1283   -0.5868    0.0000 C   0  0  0  0  0  0  0  0  0  0  0  0
    6.8427   -0.1743    0.0000 C   0  0  0  0  0  0  0  0  0  0  0  0
    6.8427    0.6507    0.0000 C   0  0  0  0  0  0  0  0  0  0  0  0
    7.5572    1.0632    0.0000 C   0  0  0  0  0  0  0  0  0  0  0  0
    7.5572    1.8882    0.0000 F   0  0  0  0  0  0  0  0  0  0  0  0
    8.2717    0.6507    0.0000 C   0  0  0  0  0  0  0  0  0  0  0  0
    8.2717   -0.1743    0.0000 C   0  0  0  0  0  0  0  0  0  0  0  0
    7.5572   -0.5868    0.0000 C   0  0  0  0  0  0  0  0  0  0  0  0
    7.5572   -1.4118    0.0000 F   0  0  0  0  0  0  0  0  0  0  0  0
    6.1283   -1.4118    0.0000 N   0  0  0  0  0  0  0  0  0  0  0  0
    5.4138   -1.8243    0.0000 C   0  0  0  0  0  0  0  0  0  0  0  0
  1  2  2  0  0  0  0
  2  3  1  0  0  0  0
  2  4  1  0  0  0  0
  4  5  4  0  0  0  0
  5  6  4  0  0  0  0
  6  7  1  0  0  0  0
  7  8  1  0  0  0  0
  8  9  1  0  0  0  0
  7  9  1  0  0  0  0
  6 10  4  0  0  0  0
 10 11  4  0  0  0  0
 11 12  4  0  0  0  0
  4 12  4  0  0  0  0
 12 13  1  0  0  0  0
 13 14  1  0  0  0  0
 14 15  4  0  0  0  0
 15 16  4  0  0  0  0
 16 17  4  0  0  0  0
 17 18  1  0  0  0  0
 18 19  4  0  0  0  0
 19 20  4  0  0  0  0
 20 21  1  0  0  0  0
 20 22  4  0  0  0  0
 22 23  4  0  0  0  0
 23 24  4  0  0  0  0
 18 24  4  0  0  0  0
 24 25  1  0  0  0  0
 17 26  4  0  0  0  0
 26 27  4  0  0  0  0
 14 27  4  0  0  0  0
M  END
> <IC50(uM)>
0.038

> <Outcome>
1.0

> <BindingDB ID>
220025

> <BindingDB MonomerID>
102495

> <BindingDB Ligand Name>
US8536165, 100

> <Curation/DataSource>
US Patent

> <Article DOI>
?

> <PMID>
?

> <Patent Number>
US8536165

> <Authors>
Castro Palomino Laria, JC; Terricabras Belart, E; Erra Sola, M; Navarro Romero, E; Fonquerna Pou, S; Cardus Figueras, A; Lozoya Toribio, ME

> <Link to Ligand in BindingDB>
http://www.bindingdb.org/bind/chemsearch/marvin/MolStructure.jsp?monomerid=102495

> <Link to Ligand-Target Pair in BindingDB>
http://www.bindingdb.org/jsp/dbsearch/PrimarySearch_ki.jsp?energyterm=kJ/mole&tag=r21&monomerid=102495&enzyme=Dihydroorotate+dehydrogenase&column=ki&startPg=0&Increment=50&submit=Search

> <PubChem CID>
57479012

> <PubChem SID>
172097786

$$$$

  Mrv2115 07222212352D          

 31 35  0  0  0  0            999 V2000
    0.7145   -2.8875    0.0000 C   0  0  0  0  0  0  0  0  0  0  0  0
    0.0000   -2.4750    0.0000 C   0  0  0  0  0  0  0  0  0  0  0  0
   -0.7145   -2.8875    0.0000 C   0  0  0  0  0  0  0  0  0  0  0  0
   -1.4289   -2.4750    0.0000 C   0  0  0  0  0  0  0  0  0  0  0  0
   -1.4289   -1.6500    0.0000 C   0  0  0  0  0  0  0  0  0  0  0  0
   -0.7145   -1.2375    0.0000 C   0  0  0  0  0  0  0  0  0  0  0  0
    0.0000   -1.6500    0.0000 C   0  0  0  0  0  0  0  0  0  0  0  0
    0.7145   -1.2375    0.0000 N   0  0  0  0  0  0  0  0  0  0  0  0
    0.7145   -0.4125    0.0000 C   0  0  0  0  0  0  0  0  0  0  0  0
    1.4289    0.0000    0.0000 C   0  0  0  0  0  0  0  0  0  0  0  0
    1.4289    0.8250    0.0000 C   0  0  0  0  0  0  0  0  0  0  0  0
    2.1434    1.2375    0.0000 C   0  0  0  0  0  0  0  0  0  0  0  0
    0.7145    1.2375    0.0000 C   0  0  0  0  0  0  0  0  0  0  0  0
    2.1434   -0.4125    0.0000 C   0  0  0  0  0  0  0  0  0  0  0  0
    2.8579    0.0000    0.0000 C   0  0  0  0  0  0  0  0  0  0  0  0
    3.5724   -0.4125    0.0000 C   0  0  0  0  0  0  0  0  0  0  0  0
    4.2868   -0.0000    0.0000 C   0  0  0  0  0  0  0  0  0  0  0  0
    4.2868    0.8250    0.0000 C   0  0  0  0  0  0  0  0  0  0  0  0
    5.0013    1.2375    0.0000 N   0  0  0  0  0  0  0  0  0  0  0  0
    5.7158    0.8250    0.0000 C   0  0  0  0  0  0  0  0  0  0  0  0
    6.4302    1.2375    0.0000 C   0  0  0  0  0  0  0  0  0  0  0  0
    6.8427    1.9520    0.0000 C   0  0  0  0  0  0  0  0  0  0  0  0
    7.2552    1.2375    0.0000 C   0  0  0  0  0  0  0  0  0  0  0  0
    5.7158   -0.0000    0.0000 C   0  0  0  0  0  0  0  0  0  0  0  0
    5.0013   -0.4125    0.0000 N   0  0  0  0  0  0  0  0  0  0  0  0
    3.5724   -1.2375    0.0000 C   0  0  0  0  0  0  0  0  0  0  0  0
    4.2868   -1.6500    0.0000 F   0  0  0  0  0  0  0  0  0  0  0  0
    2.8579   -1.6500    0.0000 C   0  0  0  0  0  0  0  0  0  0  0  0
    2.1434   -1.2375    0.0000 C   0  0  0  0  0  0  0  0  0  0  0  0
    1.4289   -1.6500    0.0000 C   0  0  0  0  0  0  0  0  0  0  0  0
    1.4289   -2.4750    0.0000 O   0  0  0  0  0  0  0  0  0  0  0  0
  1  2  1  0  0  0  0
  2  3  4  0  0  0  0
  3  4  4  0  0  0  0
  4  5  4  0  0  0  0
  5  6  4  0  0  0  0
  6  7  4  0  0  0  0
  2  7  4  0  0  0  0
  7  8  1  0  0  0  0
  8  9  4  0  0  0  0
  9 10  4  0  0  0  0
 10 11  1  0  0  0  0
 11 12  1  0  0  0  0
 11 13  1  0  0  0  0
 10 14  4  0  0  0  0
 14 15  4  0  0  0  0
 15 16  4  0  0  0  0
 16 17  1  0  0  0  0
 17 18  4  0  0  0  0
 18 19  4  0  0  0  0
 19 20  4  0  0  0  0
 20 21  1  0  0  0  0
 21 22  1  0  0  0  0
 22 23  1  0  0  0  0
 21 23  1  0  0  0  0
 20 24  4  0  0  0  0
 24 25  4  0  0  0  0
 17 25  4  0  0  0  0
 16 26  4  0  0  0  0
 26 27  1  0  0  0  0
 26 28  4  0  0  0  0
 28 29  4  0  0  0  0
 14 29  4  0  0  0  0
 29 30  4  0  0  0  0
  8 30  4  0  0  0  0
 30 31  2  0  0  0  0
M  END
> <IC50(uM)>
0.0026

> <Outcome>
1.0

> <BindingDB ID>
1121363

> <BindingDB MonomerID>
530429

> <BindingDB Ligand Name>
6-(5-Cyclopropylpyrazin-2-yl)-7-fluoro-4-isopropyl-2-(o-tolyl)isoquinolin-1(2H)- one.::WO2022070068, Example 1

> <Curation/DataSource>
Curated from the literature by BindingDB

> <Article DOI>
?

> <PMID>
WO2022070068

> <Patent Number>
?

> <Authors>
Lindsey, D; Scott, K; Zhuming, Z

> <Link to Ligand in BindingDB>
http://www.bindingdb.org/bind/chemsearch/marvin/MolStructure.jsp?monomerid=530429

> <Link to Ligand-Target Pair in BindingDB>
http://www.bindingdb.org/jsp/dbsearch/PrimarySearch_ki.jsp?energyterm=kJ/mole&tag=r21&monomerid=530429&enzyme=Dihydroorotate+dehydrogenase&column=ki&startPg=0&Increment=50&submit=Search

> <PubChem CID>
?

> <PubChem SID>
?

$$$$

  Mrv2115 07222212352D          

 25 28  0  0  0  0            999 V2000
    1.8500    2.0625    0.0000 O   0  0  0  0  0  0  0  0  0  0  0  0
    2.5645    2.4750    0.0000 C   0  0  0  0  0  0  0  0  0  0  0  0
    3.2789    2.0625    0.0000 N   0  0  0  0  0  0  0  0  0  0  0  0
    3.2789    1.2375    0.0000 C   0  0  0  0  0  0  0  0  0  0  0  0
    3.9934    0.8250    0.0000 C   0  0  0  0  0  0  0  0  0  0  0  0
    3.9934    0.0000    0.0000 C   0  0  0  0  0  0  0  0  0  0  0  0
    3.2789   -0.4125    0.0000 C   0  0  0  0  0  0  0  0  0  0  0  0
    2.5645    0.0000    0.0000 C   0  0  0  0  0  0  0  0  0  0  0  0
    2.5645    0.8250    0.0000 C   0  0  0  0  0  0  0  0  0  0  0  0
    1.7798    1.0799    0.0000 C   0  0  0  0  0  0  0  0  0  0  0  0
    1.2949    0.4125    0.0000 N   0  0  0  0  0  0  0  0  0  0  0  0
    1.7798   -0.2549    0.0000 N   0  0  0  0  0  0  0  0  0  0  0  0
    1.5249   -1.0396    0.0000 C   0  0  0  0  0  0  0  0  0  0  0  0
    2.0769   -1.6527    0.0000 C   0  0  0  0  0  0  0  0  0  0  0  0
    1.8220   -2.4373    0.0000 C   0  0  0  0  0  0  0  0  0  0  0  0
    1.0150   -2.6088    0.0000 C   0  0  0  0  0  0  0  0  0  0  0  0
    0.4630   -1.9957    0.0000 C   0  0  0  0  0  0  0  0  0  0  0  0
    0.7179   -1.2111    0.0000 C   0  0  0  0  0  0  0  0  0  0  0  0
    0.1659   -0.5980    0.0000 F   0  0  0  0  0  0  0  0  0  0  0  0
    2.5645    3.3000    0.0000 C   0  0  0  0  0  0  0  0  0  0  0  0
    1.8500    3.7125    0.0000 N   0  0  0  0  0  0  0  0  0  0  0  0
    1.8500    4.5375    0.0000 C   0  0  0  0  0  0  0  0  0  0  0  0
    2.5645    4.9500    0.0000 C   0  0  0  0  0  0  0  0  0  0  0  0
    3.2789    4.5375    0.0000 C   0  0  0  0  0  0  0  0  0  0  0  0
    3.2789    3.7125    0.0000 N   0  0  0  0  0  0  0  0  0  0  0  0
  1  2  2  0  0  0  0
  2  3  1  0  0  0  0
  3  4  1  0  0  0  0
  4  5  1  0  0  0  0
  5  6  1  0  0  0  0
  6  7  1  0  0  0  0
  7  8  1  0  0  0  0
  8  9  4  0  0  0  0
  4  9  1  0  0  0  0
  9 10  4  0  0  0  0
 10 11  4  0  0  0  0
 11 12  4  0  0  0  0
  8 12  4  0  0  0  0
 12 13  1  0  0  0  0
 13 14  4  0  0  0  0
 14 15  4  0  0  0  0
 15 16  4  0  0  0  0
 16 17  4  0  0  0  0
 17 18  4  0  0  0  0
 13 18  4  0  0  0  0
 18 19  1  0  0  0  0
  2 20  1  0  0  0  0
 20 21  4  0  0  0  0
 21 22  4  0  0  0  0
 22 23  4  0  0  0  0
 23 24  4  0  0  0  0
 24 25  4  0  0  0  0
 20 25  4  0  0  0  0
M  END
> <IC50(uM)>
5.4

> <Outcome>
0.0

> <BindingDB ID>
51334950

> <BindingDB MonomerID>
50540322

> <BindingDB Ligand Name>
CHEMBL4639767

> <Curation/DataSource>
ChEMBL

> <Article DOI>
10.1021/acs.jmedchem.9b01658

> <PMID>
32212728

> <Patent Number>
?

> <Authors>
Popova, G; Ladds, MJGW; Johansson, L; Saleh, A; Larsson, J; Sandberg, L; Sahlberg, SH; Qian, W; Gullberg, H; Garg, N; Gustavsson, AL; Haraldsson, M; Lane, D; Yngve, U; Lain, S

> <Link to Ligand in BindingDB>
http://www.bindingdb.org/bind/chemsearch/marvin/MolStructure.jsp?monomerid=50540322

> <Link to Ligand-Target Pair in BindingDB>
http://www.bindingdb.org/jsp/dbsearch/PrimarySearch_ki.jsp?energyterm=kJ/mole&tag=r21&monomerid=50540322&enzyme=Dihydroorotate+dehydrogenase&column=ki&startPg=0&Increment=50&submit=Search

> <PubChem CID>
156015159

> <PubChem SID>
442141885

$$$$

  Mrv2115 07222212352D          

 20 22  0  0  0  0            999 V2000
   -0.7145   -1.2375    0.0000 O   0  0  0  0  0  0  0  0  0  0  0  0
    0.0000   -1.6500    0.0000 C   0  0  0  0  0  0  0  0  0  0  0  0
    0.0000   -2.4750    0.0000 N   0  0  0  0  0  0  0  0  0  0  0  0
   -0.7145   -2.8875    0.0000 C   0  0  0  0  0  0  0  0  0  0  0  0
   -0.7145   -3.7125    0.0000 C   0  0  0  0  0  0  0  0  0  0  0  0
   -1.4289   -4.1250    0.0000 C   0  0  0  0  0  0  0  0  0  0  0  0
   -2.1434   -3.7125    0.0000 C   0  0  0  0  0  0  0  0  0  0  0  0
   -2.1434   -2.8875    0.0000 C   0  0  0  0  0  0  0  0  0  0  0  0
   -1.4289   -2.4750    0.0000 C   0  0  0  0  0  0  0  0  0  0  0  0
   -1.4289   -1.6500    0.0000 F   0  0  0  0  0  0  0  0  0  0  0  0
    0.7145   -1.2375    0.0000 C   0  0  0  0  0  0  0  0  0  0  0  0
    0.7145   -0.4125    0.0000 C   0  0  0  0  0  0  0  0  0  0  0  0
    1.4289    0.0000    0.0000 C   0  0  0  0  0  0  0  0  0  0  0  0
    2.1434   -0.4125    0.0000 C   0  0  0  0  0  0  0  0  0  0  0  0
    2.8579    0.0000    0.0000 C   0  0  0  0  0  0  0  0  0  0  0  0
    3.5724   -0.4125    0.0000 C   0  0  0  0  0  0  0  0  0  0  0  0
    3.5724   -1.2375    0.0000 C   0  0  0  0  0  0  0  0  0  0  0  0
    2.8579   -1.6500    0.0000 C   0  0  0  0  0  0  0  0  0  0  0  0
    2.1434   -1.2375    0.0000 C   0  0  0  0  0  0  0  0  0  0  0  0
    1.4289   -1.6500    0.0000 C   0  0  0  0  0  0  0  0  0  0  0  0
  1  2  2  0  0  0  0
  2  3  1  0  0  0  0
  3  4  1  0  0  0  0
  4  5  4  0  0  0  0
  5  6  4  0  0  0  0
  6  7  4  0  0  0  0
  7  8  4  0  0  0  0
  8  9  4  0  0  0  0
  4  9  4  0  0  0  0
  9 10  1  0  0  0  0
  2 11  1  0  0  0  0
 11 12  4  0  0  0  0
 12 13  4  0  0  0  0
 13 14  4  0  0  0  0
 14 15  4  0  0  0  0
 15 16  4  0  0  0  0
 16 17  4  0  0  0  0
 17 18  4  0  0  0  0
 18 19  4  0  0  0  0
 14 19  4  0  0  0  0
 19 20  4  0  0  0  0
 11 20  4  0  0  0  0
M  END
> <IC50(uM)>
34.0

> <Outcome>
0.0

> <BindingDB ID>
28096

> <BindingDB MonomerID>
15348

> <BindingDB Ligand Name>
ChemBridge compound no. 3::N-(2-fluorophenyl)naphthalene-2-carboxamide

> <Curation/DataSource>
Curated from the literature by BindingDB

> <Article DOI>
10.1074/jbc.M501100200

> <PMID>
15795226

> <Patent Number>
?

> <Authors>
Baldwin, J; Michnoff, CH; Malmquist, NA; White, J; Roth, MG; Rathod, PK; Phillips, MA

> <Link to Ligand in BindingDB>
http://www.bindingdb.org/bind/chemsearch/marvin/MolStructure.jsp?monomerid=15348

> <Link to Ligand-Target Pair in BindingDB>
http://www.bindingdb.org/jsp/dbsearch/PrimarySearch_ki.jsp?energyterm=kJ/mole&tag=r21&monomerid=15348&enzyme=Dihydroorotate+Dehydrogenase+%28DHODH%29&column=ki&startPg=0&Increment=50&submit=Search

> <PubChem CID>
883701

> <PubChem SID>
46515649

$$$$

  Mrv2115 07222212352D          

 32 35  0  0  0  0            999 V2000
   -2.6111    0.8587    0.0000 C   0  0  0  0  0  0  0  0  0  0  0  0
   -2.1262    0.1913    0.0000 C   0  0  0  0  0  0  0  0  0  0  0  0
   -1.3057    0.2775    0.0000 N   0  0  0  0  0  0  0  0  0  0  0  0
   -0.8932    0.9920    0.0000 C   0  0  0  0  0  0  0  0  0  0  0  0
   -1.2288    1.7457    0.0000 C   0  0  0  0  0  0  0  0  0  0  0  0
   -0.7438    2.4131    0.0000 O   0  0  0  0  0  0  0  0  0  0  0  0
   -0.0862    0.8205    0.0000 N   0  0  0  0  0  0  0  0  0  0  0  0
    0.0000   -0.0000    0.0000 N   0  0  0  0  0  0  0  0  0  0  0  0
    0.7145   -0.4125    0.0000 C   0  0  0  0  0  0  0  0  0  0  0  0
    1.4289    0.0000    0.0000 C   0  0  0  0  0  0  0  0  0  0  0  0
    2.1434   -0.4125    0.0000 C   0  0  0  0  0  0  0  0  0  0  0  0
    2.8579    0.0000    0.0000 C   0  0  0  0  0  0  0  0  0  0  0  0
    2.8579    0.8250    0.0000 C   0  0  0  0  0  0  0  0  0  0  0  0
    3.5724    1.2375    0.0000 C   0  0  0  0  0  0  0  0  0  0  0  0
    2.1434    1.2375    0.0000 C   0  0  0  0  0  0  0  0  0  0  0  0
    3.5724   -0.4125    0.0000 C   0  0  0  0  0  0  0  0  0  0  0  0
    3.5724   -1.2375    0.0000 N   0  0  0  0  0  0  0  0  0  0  0  0
    4.2868   -1.6500    0.0000 C   0  0  0  0  0  0  0  0  0  0  0  0
    5.0013   -1.2375    0.0000 C   0  0  0  0  0  0  0  0  0  0  0  0
    5.7158   -1.6500    0.0000 C   0  0  0  0  0  0  0  0  0  0  0  0
    5.7158   -2.4750    0.0000 C   0  0  0  0  0  0  0  0  0  0  0  0
    5.0013   -2.8875    0.0000 C   0  0  0  0  0  0  0  0  0  0  0  0
    4.2868   -2.4750    0.0000 C   0  0  0  0  0  0  0  0  0  0  0  0
    3.5724   -2.8875    0.0000 C   0  0  0  0  0  0  0  0  0  0  0  0
    2.8579   -1.6500    0.0000 C   0  0  0  0  0  0  0  0  0  0  0  0
    2.8579   -2.4750    0.0000 O   0  0  0  0  0  0  0  0  0  0  0  0
    2.1434   -1.2375    0.0000 C   0  0  0  0  0  0  0  0  0  0  0  0
    1.4289   -1.6500    0.0000 C   0  0  0  0  0  0  0  0  0  0  0  0
    0.7145   -1.2375    0.0000 C   0  0  0  0  0  0  0  0  0  0  0  0
    0.0000   -1.6500    0.0000 F   0  0  0  0  0  0  0  0  0  0  0  0
   -0.7537   -0.3356    0.0000 C   0  0  0  0  0  0  0  0  0  0  0  0
   -0.9252   -1.1425    0.0000 O   0  0  0  0  0  0  0  0  0  0  0  0
  1  2  1  0  0  0  0
  2  3  1  0  0  0  0
  3  4  4  0  0  0  0
  4  5  1  0  0  0  0
  5  6  1  0  0  0  0
  4  7  4  0  0  0  0
  7  8  4  0  0  0  0
  8  9  1  0  0  0  0
  9 10  4  0  0  0  0
 10 11  4  0  0  0  0
 11 12  4  0  0  0  0
 12 13  1  0  0  0  0
 13 14  1  0  0  0  0
 13 15  1  0  0  0  0
 12 16  4  0  0  0  0
 16 17  4  0  0  0  0
 17 18  1  0  0  0  0
 18 19  4  0  0  0  0
 19 20  4  0  0  0  0
 20 21  4  0  0  0  0
 21 22  4  0  0  0  0
 22 23  4  0  0  0  0
 18 23  4  0  0  0  0
 23 24  1  0  0  0  0
 17 25  4  0  0  0  0
 25 26  2  0  0  0  0
 25 27  4  0  0  0  0
 11 27  4  0  0  0  0
 27 28  4  0  0  0  0
 28 29  4  0  0  0  0
  9 29  4  0  0  0  0
 29 30  1  0  0  0  0
  8 31  4  0  0  0  0
  3 31  4  0  0  0  0
 31 32  2  0  0  0  0
M  END
> <IC50(uM)>
3.9600000000000003E-4

> <Outcome>
1.0

> <BindingDB ID>
51360203

> <BindingDB MonomerID>
50549953

> <BindingDB Ligand Name>
CHEMBL4751399

> <Curation/DataSource>
ChEMBL

> <Article DOI>
?

> <PMID>
33603957

> <Patent Number>
?

> <Authors>
Sabnis, RW

> <Link to Ligand in BindingDB>
http://www.bindingdb.org/bind/chemsearch/marvin/MolStructure.jsp?monomerid=50549953

> <Link to Ligand-Target Pair in BindingDB>
http://www.bindingdb.org/jsp/dbsearch/PrimarySearch_ki.jsp?energyterm=kJ/mole&tag=r21&monomerid=50549953&enzyme=Dihydroorotate+dehydrogenase&column=ki&startPg=0&Increment=50&submit=Search

> <PubChem CID>
155209570

> <PubChem SID>
461680293

$$$$

  Mrv2115 07222212352D          

 24 26  0  0  0  0            999 V2000
    0.7145   -2.8875    0.0000 C   0  0  0  0  0  0  0  0  0  0  0  0
    0.0000   -2.4750    0.0000 N   0  0  0  0  0  0  0  0  0  0  0  0
    0.0000   -1.6500    0.0000 C   0  0  0  0  0  0  0  0  0  0  0  0
   -0.7145   -1.2375    0.0000 O   0  0  0  0  0  0  0  0  0  0  0  0
    0.7145   -1.2375    0.0000 C   0  0  0  0  0  0  0  0  0  0  0  0
    0.7145   -0.4125    0.0000 C   0  0  0  0  0  0  0  0  0  0  0  0
    1.4289    0.0000    0.0000 C   0  0  0  0  0  0  0  0  0  0  0  0
    2.1434   -0.4125    0.0000 C   0  0  0  0  0  0  0  0  0  0  0  0
    2.8579    0.0000    0.0000 C   0  0  0  0  0  0  0  0  0  0  0  0
    3.5724   -0.4125    0.0000 C   0  0  0  0  0  0  0  0  0  0  0  0
    4.2868   -0.0000    0.0000 Br  0  0  0  0  0  0  0  0  0  0  0  0
    3.5724   -1.2375    0.0000 C   0  0  0  0  0  0  0  0  0  0  0  0
    2.8579   -1.6500    0.0000 C   0  0  0  0  0  0  0  0  0  0  0  0
    2.1434   -1.2375    0.0000 C   0  0  0  0  0  0  0  0  0  0  0  0
    1.4289   -1.6500    0.0000 C   0  0  0  0  0  0  0  0  0  0  0  0
   -0.7145   -2.8875    0.0000 C   0  0  0  0  0  0  0  0  0  0  0  0
   -1.4289   -2.4750    0.0000 C   0  0  0  0  0  0  0  0  0  0  0  0
   -2.1434   -2.8875    0.0000 C   0  0  0  0  0  0  0  0  0  0  0  0
   -2.1434   -3.7125    0.0000 C   0  0  0  0  0  0  0  0  0  0  0  0
   -1.4289   -4.1250    0.0000 C   0  0  0  0  0  0  0  0  0  0  0  0
   -0.7145   -3.7125    0.0000 C   0  0  0  0  0  0  0  0  0  0  0  0
    0.0000   -4.1250    0.0000 C   0  0  0  0  0  0  0  0  0  0  0  0
    0.7145   -3.7125    0.0000 O   0  0  0  0  0  0  0  0  0  0  0  0
    0.0000   -4.9500    0.0000 O   0  0  0  0  0  0  0  0  0  0  0  0
  1  2  1  0  0  0  0
  2  3  1  0  0  0  0
  3  4  2  0  0  0  0
  3  5  1  0  0  0  0
  5  6  4  0  0  0  0
  6  7  4  0  0  0  0
  7  8  4  0  0  0  0
  8  9  4  0  0  0  0
  9 10  4  0  0  0  0
 10 11  1  0  0  0  0
 10 12  4  0  0  0  0
 12 13  4  0  0  0  0
 13 14  4  0  0  0  0
  8 14  4  0  0  0  0
 14 15  4  0  0  0  0
  5 15  4  0  0  0  0
  2 16  1  0  0  0  0
 16 17  4  0  0  0  0
 17 18  4  0  0  0  0
 18 19  4  0  0  0  0
 19 20  4  0  0  0  0
 20 21  4  0  0  0  0
 16 21  4  0  0  0  0
 21 22  1  0  0  0  0
 22 23  2  0  0  0  0
 22 24  1  0  0  0  0
M  END
> <IC50(uM)>
200.0

> <Outcome>
0.0

> <BindingDB ID>
29200

> <BindingDB MonomerID>
16095

> <BindingDB Ligand Name>
2-[(6-bromonaphthalene-2-)(methyl)amido]benzoic acid::2-{[(6-bromonaphthalen-2-yl)carbonyl](methyl)amino}benzoic acid::Inhibitor 3

> <Curation/DataSource>
Curated from the literature by BindingDB

> <Article DOI>
10.1016/j.bmcl.2005.09.045

> <PMID>
16236496

> <Patent Number>
?

> <Authors>
Heikkila, T; Thirumalairajan, S; Davies, M; Parsons, MR; McConkey, AG; Fishwick, CW; Johnson, AP

> <Link to Ligand in BindingDB>
http://www.bindingdb.org/bind/chemsearch/marvin/MolStructure.jsp?monomerid=16095

> <Link to Ligand-Target Pair in BindingDB>
http://www.bindingdb.org/jsp/dbsearch/PrimarySearch_ki.jsp?energyterm=kJ/mole&tag=r21&monomerid=16095&enzyme=Dihydroorotate+dehydrogenase&column=ki&startPg=0&Increment=50&submit=Search

> <PubChem CID>
11703683

> <PubChem SID>
46516356

$$$$

  Mrv2115 07222212352D          

 27 29  0  0  0  0            999 V2000
   -2.1434   11.7161    0.0000 C   0  0  0  0  0  0  0  0  0  0  0  0
   -2.1434   10.8911    0.0000 O   0  0  0  0  0  0  0  0  0  0  0  0
   -1.4289   10.4786    0.0000 C   0  0  0  0  0  0  0  0  0  0  0  0
   -0.7145   10.8911    0.0000 C   0  0  0  0  0  0  0  0  0  0  0  0
   -0.0000   10.4786    0.0000 C   0  0  0  0  0  0  0  0  0  0  0  0
   -0.0000    9.6536    0.0000 C   0  0  0  0  0  0  0  0  0  0  0  0
   -0.7145    9.2411    0.0000 C   0  0  0  0  0  0  0  0  0  0  0  0
   -0.7145    8.4161    0.0000 C   0  0  0  0  0  0  0  0  0  0  0  0
   -0.0000    8.0036    0.0000 C   0  0  0  0  0  0  0  0  0  0  0  0
   -0.0000    7.1786    0.0000 C   0  0  0  0  0  0  0  0  0  0  0  0
   -0.7145    6.7661    0.0000 C   0  0  0  0  0  0  0  0  0  0  0  0
   -0.7145    5.9411    0.0000 N   0  0  0  0  0  0  0  0  0  0  0  0
   -0.0000    5.5286    0.0000 C   0  0  0  0  0  0  0  0  0  0  0  0
    0.7145    5.9411    0.0000 O   0  0  0  0  0  0  0  0  0  0  0  0
   -0.0000    4.7036    0.0000 C   0  0  0  0  0  0  0  0  0  0  0  0
    0.6674    4.2187    0.0000 C   0  0  0  0  0  0  0  0  0  0  0  0
    1.4521    4.4736    0.0000 C   0  0  0  0  0  0  0  0  0  0  0  0
    1.6236    5.2806    0.0000 O   0  0  0  0  0  0  0  0  0  0  0  0
    2.0652    3.9216    0.0000 O   0  0  0  0  0  0  0  0  0  0  0  0
    0.4125    3.4340    0.0000 C   0  0  0  0  0  0  0  0  0  0  0  0
   -0.4125    3.4340    0.0000 C   0  0  0  0  0  0  0  0  0  0  0  0
   -0.6674    4.2187    0.0000 C   0  0  0  0  0  0  0  0  0  0  0  0
   -1.4521    4.4736    0.0000 O   0  0  0  0  0  0  0  0  0  0  0  0
   -1.4289    7.1786    0.0000 C   0  0  0  0  0  0  0  0  0  0  0  0
   -2.1434    6.7661    0.0000 F   0  0  0  0  0  0  0  0  0  0  0  0
   -1.4289    8.0036    0.0000 C   0  0  0  0  0  0  0  0  0  0  0  0
   -1.4289    9.6536    0.0000 C   0  0  0  0  0  0  0  0  0  0  0  0
  1  2  1  0  0  0  0
  2  3  1  0  0  0  0
  3  4  4  0  0  0  0
  4  5  4  0  0  0  0
  5  6  4  0  0  0  0
  6  7  4  0  0  0  0
  7  8  1  0  0  0  0
  8  9  4  0  0  0  0
  9 10  4  0  0  0  0
 10 11  4  0  0  0  0
 11 12  1  0  0  0  0
 12 13  1  0  0  0  0
 13 14  2  0  0  0  0
 13 15  1  0  0  0  0
 15 16  2  0  0  0  0
 16 17  1  0  0  0  0
 17 18  2  0  0  0  0
 17 19  1  0  0  0  0
 16 20  1  0  0  0  0
 20 21  1  0  0  0  0
 21 22  1  0  0  0  0
 15 22  1  0  0  0  0
 22 23  1  0  0  0  0
 11 24  4  0  0  0  0
 24 25  1  0  0  0  0
 24 26  4  0  0  0  0
  8 26  4  0  0  0  0
  7 27  4  0  0  0  0
  3 27  4  0  0  0  0
M  END
> <IC50(uM)>
1.46

> <Outcome>
0.0

> <BindingDB ID>
50319878

> <BindingDB MonomerID>
50173147

> <BindingDB Ligand Name>
2-(3-Fluoro-3'-methoxy-biphenyl-4-ylcarbamoyl)-3-hydroxy-cyclopent-1-enecarboxylic acid::CHEMBL196256

> <Curation/DataSource>
ChEMBL

> <Article DOI>
10.1016/j.bmcl.2005.07.053

> <PMID>
16143532

> <Patent Number>
?

> <Authors>
Leban, J; Kralik, M; Mies, J; Gassen, M; Tentschert, K; Baumgartner, R

> <Link to Ligand in BindingDB>
http://www.bindingdb.org/bind/chemsearch/marvin/MolStructure.jsp?monomerid=50173147

> <Link to Ligand-Target Pair in BindingDB>
http://www.bindingdb.org/jsp/dbsearch/PrimarySearch_ki.jsp?energyterm=kJ/mole&tag=r21&monomerid=50173147&enzyme=Dihydroorotate+dehydrogenase&column=ki&startPg=0&Increment=50&submit=Search

> <PubChem CID>
22042533

> <PubChem SID>
104059118

$$$$

  Mrv2115 07222212352D          

 37 40  0  0  0  0            999 V2000
   -3.9284    3.5889    0.0000 C   0  0  0  0  0  0  0  0  0  0  0  0
   -4.3409    2.8744    0.0000 O   0  0  0  0  0  0  0  0  0  0  0  0
   -3.9284    2.1599    0.0000 C   0  0  0  0  0  0  0  0  0  0  0  0
   -3.1034    2.1599    0.0000 C   0  0  0  0  0  0  0  0  0  0  0  0
   -2.6909    1.4455    0.0000 C   0  0  0  0  0  0  0  0  0  0  0  0
   -3.1034    0.7310    0.0000 C   0  0  0  0  0  0  0  0  0  0  0  0
   -3.9284    0.7310    0.0000 C   0  0  0  0  0  0  0  0  0  0  0  0
   -4.3409    0.0165    0.0000 N   0  0  0  0  0  0  0  0  0  0  0  0
   -3.9284   -0.6979    0.0000 C   0  0  0  0  0  0  0  0  0  0  0  0
   -4.3409   -1.4124    0.0000 O   0  0  0  0  0  0  0  0  0  0  0  0
   -3.1034   -0.6979    0.0000 C   0  0  0  0  0  0  0  0  0  0  0  0
   -2.6909    0.0165    0.0000 C   0  0  0  0  0  0  0  0  0  0  0  0
   -1.8659    0.0165    0.0000 C   0  0  0  0  0  0  0  0  0  0  0  0
   -1.4534    0.7310    0.0000 F   0  0  0  0  0  0  0  0  0  0  0  0
   -1.4534   -0.6979    0.0000 C   0  0  0  0  0  0  0  0  0  0  0  0
   -0.6284   -0.6979    0.0000 N   0  0  0  0  0  0  0  0  0  0  0  0
   -0.1435   -1.3654    0.0000 N   0  0  0  0  0  0  0  0  0  0  0  0
    0.6411   -1.1104    0.0000 C   0  0  0  0  0  0  0  0  0  0  0  0
    0.6411   -0.2854    0.0000 N   0  0  0  0  0  0  0  0  0  0  0  0
   -0.1435   -0.0305    0.0000 C   0  0  0  0  0  0  0  0  0  0  0  0
   -0.3984    0.7541    0.0000 O   0  0  0  0  0  0  0  0  0  0  0  0
    1.3556    0.1271    0.0000 C   0  0  0  0  0  0  0  0  0  0  0  0
    2.0701   -0.2854    0.0000 C   0  0  0  0  0  0  0  0  0  0  0  0
    2.0701   -1.1104    0.0000 C   0  0  0  0  0  0  0  0  0  0  0  0
    1.3556   -1.5229    0.0000 C   0  0  0  0  0  0  0  0  0  0  0  0
   -1.8659   -1.4124    0.0000 C   0  0  0  0  0  0  0  0  0  0  0  0
   -2.6909   -1.4124    0.0000 C   0  0  0  0  0  0  0  0  0  0  0  0
   -3.1034   -2.1269    0.0000 O   0  0  0  0  0  0  0  0  0  0  0  0
   -2.6909   -2.8414    0.0000 C   0  0  0  0  0  0  0  0  0  0  0  0
   -1.8659   -2.8414    0.0000 C   0  0  0  0  0  0  0  0  0  0  0  0
   -3.1034   -3.5558    0.0000 C   0  0  0  0  0  0  0  0  0  0  0  0
   -3.8179   -3.1433    0.0000 F   0  0  0  0  0  0  0  0  0  0  0  0
   -2.3890   -3.9683    0.0000 F   0  0  0  0  0  0  0  0  0  0  0  0
   -3.5159   -4.2703    0.0000 F   0  0  0  0  0  0  0  0  0  0  0  0
   -4.3409    1.4455    0.0000 C   0  0  0  0  0  0  0  0  0  0  0  0
   -5.1659    1.4455    0.0000 O   0  0  0  0  0  0  0  0  0  0  0  0
   -5.5784    2.1599    0.0000 C   0  0  0  0  0  0  0  0  0  0  0  0
  1  2  1  0  0  0  0
  2  3  1  0  0  0  0
  3  4  4  0  0  0  0
  4  5  4  0  0  0  0
  5  6  4  0  0  0  0
  6  7  4  0  0  0  0
  7  8  1  0  0  0  0
  8  9  1  0  0  0  0
  9 10  2  0  0  0  0
  9 11  1  0  0  0  0
 11 12  4  0  0  0  0
 12 13  4  0  0  0  0
 13 14  1  0  0  0  0
 13 15  4  0  0  0  0
 15 16  1  0  0  0  0
 16 17  4  0  0  0  0
 17 18  4  0  0  0  0
 18 19  4  0  0  0  0
 19 20  4  0  0  0  0
 16 20  4  0  0  0  0
 20 21  2  0  0  0  0
 19 22  1  0  0  0  0
 22 23  1  0  0  0  0
 23 24  1  0  0  0  0
 24 25  1  0  0  0  0
 18 25  1  0  0  0  0
 15 26  4  0  0  0  0
 26 27  4  0  0  0  0
 11 27  4  0  0  0  0
 27 28  1  0  0  0  0
 28 29  1  0  0  0  0
 29 30  1  0  0  0  0
 29 31  1  0  0  0  0
 31 32  1  0  0  0  0
 31 33  1  0  0  0  0
 31 34  1  0  0  0  0
  7 35  4  0  0  0  0
  3 35  4  0  0  0  0
 35 36  1  0  0  0  0
 36 37  1  0  0  0  0
M  END
> <IC50(uM)>
0.18

> <Outcome>
1.0

> <BindingDB ID>
1020491

> <BindingDB MonomerID>
490439

> <BindingDB Ligand Name>
N-(2,3-dimethoxyphenyl)-5-fluoro-4-(3-oxo-5,6,7,8-tetrahydro[1,2,4]triazolo[4,3-a]pyridin-2(3H)-yl)-2-{[(2S)-1,1,1-trifluoropropan-2-yl]oxy}benzamide::US10968216, Example 107

> <Curation/DataSource>
US Patent

> <Article DOI>
?

> <PMID>
?

> <Patent Number>
US10968216

> <Authors>
Gradl, SN; Nguyen, D; Eis, K; Gunther, J; Stellfeld, T; Janzer, A; Christian, S; Mueller, T; Sheikh, SE; Zhou, HJ; Zhao, C; Sykes, DB; Ferrara, SJ; Liu, K; Herbert, SA; Merz, C; Niehues, M; Nising, CF; Schafer, M; Zimmermann, K; Knablein, J; Thede, K; Faupel, T

> <Link to Ligand in BindingDB>
http://www.bindingdb.org/bind/chemsearch/marvin/MolStructure.jsp?monomerid=490439

> <Link to Ligand-Target Pair in BindingDB>
http://www.bindingdb.org/jsp/dbsearch/PrimarySearch_ki.jsp?energyterm=kJ/mole&tag=r21&monomerid=490439&enzyme=Dihydroorotate+dehydrogenase&column=ki&startPg=0&Increment=50&submit=Search

> <PubChem CID>
134473941

> <PubChem SID>
447117166

$$$$

  Mrv2115 07222212352D          

 37 41  0  0  0  0            999 V2000
   -5.1659   -2.8414    0.0000 C   0  0  0  0  0  0  0  0  0  0  0  0
   -5.5784   -2.1269    0.0000 C   0  0  0  0  0  0  0  0  0  0  0  0
   -6.4034   -2.1269    0.0000 C   0  0  0  0  0  0  0  0  0  0  0  0
   -6.8159   -1.4124    0.0000 C   0  0  0  0  0  0  0  0  0  0  0  0
   -6.4034   -0.6979    0.0000 C   0  0  0  0  0  0  0  0  0  0  0  0
   -6.8159    0.0165    0.0000 F   0  0  0  0  0  0  0  0  0  0  0  0
   -5.5784   -0.6979    0.0000 C   0  0  0  0  0  0  0  0  0  0  0  0
   -5.1659   -1.4124    0.0000 C   0  0  0  0  0  0  0  0  0  0  0  0
   -4.3409   -1.4124    0.0000 N   0  0  0  0  0  0  0  0  0  0  0  0
   -3.9284   -0.6979    0.0000 C   0  0  0  0  0  0  0  0  0  0  0  0
   -4.3409    0.0165    0.0000 O   0  0  0  0  0  0  0  0  0  0  0  0
   -3.1034   -0.6979    0.0000 C   0  0  0  0  0  0  0  0  0  0  0  0
   -2.6909    0.0165    0.0000 C   0  0  0  0  0  0  0  0  0  0  0  0
   -1.8659    0.0165    0.0000 C   0  0  0  0  0  0  0  0  0  0  0  0
   -1.4534    0.7310    0.0000 F   0  0  0  0  0  0  0  0  0  0  0  0
   -1.4534   -0.6979    0.0000 C   0  0  0  0  0  0  0  0  0  0  0  0
   -0.6284   -0.6979    0.0000 N   0  0  0  0  0  0  0  0  0  0  0  0
   -0.1435   -1.3654    0.0000 N   0  0  0  0  0  0  0  0  0  0  0  0
    0.6411   -1.1104    0.0000 C   0  0  0  0  0  0  0  0  0  0  0  0
    0.6411   -0.2854    0.0000 N   0  0  0  0  0  0  0  0  0  0  0  0
   -0.1435   -0.0305    0.0000 C   0  0  0  0  0  0  0  0  0  0  0  0
   -0.3984    0.7541    0.0000 O   0  0  0  0  0  0  0  0  0  0  0  0
    1.3556    0.1271    0.0000 C   0  0  0  0  0  0  0  0  0  0  0  0
    2.0701   -0.2854    0.0000 C   0  0  0  0  0  0  0  0  0  0  0  0
    2.0701   -1.1104    0.0000 C   0  0  0  0  0  0  0  0  0  0  0  0
    1.3556   -1.5229    0.0000 C   0  0  0  0  0  0  0  0  0  0  0  0
   -1.8659   -1.4124    0.0000 C   0  0  0  0  0  0  0  0  0  0  0  0
   -2.6909   -1.4124    0.0000 C   0  0  0  0  0  0  0  0  0  0  0  0
   -3.1034   -2.1269    0.0000 O   0  0  0  0  0  0  0  0  0  0  0  0
   -2.6909   -2.8414    0.0000 C   0  0  0  0  0  0  0  0  0  0  0  0
   -1.8659   -2.8414    0.0000 C   0  0  0  0  0  0  0  0  0  0  0  0
   -3.1034   -3.5558    0.0000 C   0  0  0  0  0  0  0  0  0  0  0  0
   -2.6909   -4.2703    0.0000 C   0  0  0  0  0  0  0  0  0  0  0  0
   -3.1034   -4.9848    0.0000 C   0  0  0  0  0  0  0  0  0  0  0  0
   -3.9284   -4.9848    0.0000 C   0  0  0  0  0  0  0  0  0  0  0  0
   -4.3409   -4.2703    0.0000 C   0  0  0  0  0  0  0  0  0  0  0  0
   -3.9284   -3.5558    0.0000 C   0  0  0  0  0  0  0  0  0  0  0  0
  1  2  1  0  0  0  0
  2  3  4  0  0  0  0
  3  4  4  0  0  0  0
  4  5  4  0  0  0  0
  5  6  1  0  0  0  0
  5  7  4  0  0  0  0
  7  8  4  0  0  0  0
  2  8  4  0  0  0  0
  8  9  1  0  0  0  0
  9 10  1  0  0  0  0
 10 11  2  0  0  0  0
 10 12  1  0  0  0  0
 12 13  4  0  0  0  0
 13 14  4  0  0  0  0
 14 15  1  0  0  0  0
 14 16  4  0  0  0  0
 16 17  1  0  0  0  0
 17 18  4  0  0  0  0
 18 19  4  0  0  0  0
 19 20  4  0  0  0  0
 20 21  4  0  0  0  0
 17 21  4  0  0  0  0
 21 22  2  0  0  0  0
 20 23  1  0  0  0  0
 23 24  1  0  0  0  0
 24 25  1  0  0  0  0
 25 26  1  0  0  0  0
 19 26  1  0  0  0  0
 16 27  4  0  0  0  0
 27 28  4  0  0  0  0
 12 28  4  0  0  0  0
 28 29  1  0  0  0  0
 29 30  1  0  0  0  0
 30 31  1  0  0  0  0
 30 32  1  0  0  0  0
 32 33  1  0  0  0  0
 33 34  1  0  0  0  0
 34 35  1  0  0  0  0
 35 36  1  0  0  0  0
 36 37  1  0  0  0  0
 32 37  1  0  0  0  0
M  END
> <IC50(uM)>
0.006849999999999999

> <Outcome>
1.0

> <BindingDB ID>
1020551

> <BindingDB MonomerID>
490490

> <BindingDB Ligand Name>
2-[(1S)-1-cyclohexylethoxy]-5-fluoro-N-(5-fluoro-2-methylphenyl)-4-(3-oxo-5,6,7,8-tetrahydro-[1,2,4]triazolo[4,3-a]pyridin-2(3H)-yl)benzamide::US10968216, Example 158

> <Curation/DataSource>
US Patent

> <Article DOI>
?

> <PMID>
?

> <Patent Number>
US10968216

> <Authors>
Gradl, SN; Nguyen, D; Eis, K; Gunther, J; Stellfeld, T; Janzer, A; Christian, S; Mueller, T; Sheikh, SE; Zhou, HJ; Zhao, C; Sykes, DB; Ferrara, SJ; Liu, K; Herbert, SA; Merz, C; Niehues, M; Nising, CF; Schafer, M; Zimmermann, K; Knablein, J; Thede, K; Faupel, T

> <Link to Ligand in BindingDB>
http://www.bindingdb.org/bind/chemsearch/marvin/MolStructure.jsp?monomerid=490490

> <Link to Ligand-Target Pair in BindingDB>
http://www.bindingdb.org/jsp/dbsearch/PrimarySearch_ki.jsp?energyterm=kJ/mole&tag=r21&monomerid=490490&enzyme=Dihydroorotate+dehydrogenase&column=ki&startPg=0&Increment=50&submit=Search

> <PubChem CID>
153291223

> <PubChem SID>
447117217

$$$$

  Mrv2115 07222212352D          

 25 28  0  0  0  0            999 V2000
    2.1434   -2.8875    0.0000 O   0  0  0  0  0  0  0  0  0  0  0  0
    1.4289   -2.4750    0.0000 C   0  0  0  0  0  0  0  0  0  0  0  0
    0.7145   -2.8875    0.0000 O   0  0  0  0  0  0  0  0  0  0  0  0
    1.4289   -1.6500    0.0000 C   0  0  0  0  0  0  0  0  0  0  0  0
    0.7145   -1.2375    0.0000 C   0  0  0  0  0  0  0  0  0  0  0  0
    0.7145   -0.4125    0.0000 C   0  0  0  0  0  0  0  0  0  0  0  0
    0.0000    0.0000    0.0000 C   0  0  0  0  0  0  0  0  0  0  0  0
   -0.7145   -0.4125    0.0000 C   0  0  0  0  0  0  0  0  0  0  0  0
   -1.4289    0.0000    0.0000 C   0  0  0  0  0  0  0  0  0  0  0  0
   -1.4289    0.8250    0.0000 C   0  0  0  0  0  0  0  0  0  0  0  0
   -2.1434    1.2375    0.0000 C   0  0  0  0  0  0  0  0  0  0  0  0
   -2.8579    0.8250    0.0000 C   0  0  0  0  0  0  0  0  0  0  0  0
   -3.5724    1.2375    0.0000 C   0  0  0  0  0  0  0  0  0  0  0  0
   -3.5724    2.0625    0.0000 C   0  0  0  0  0  0  0  0  0  0  0  0
   -2.8579    2.4750    0.0000 N   0  0  0  0  0  0  0  0  0  0  0  0
   -2.1434    2.0625    0.0000 C   0  0  0  0  0  0  0  0  0  0  0  0
   -0.7145    1.2375    0.0000 C   0  0  0  0  0  0  0  0  0  0  0  0
    0.0000    0.8250    0.0000 C   0  0  0  0  0  0  0  0  0  0  0  0
    1.4289    0.0000    0.0000 N   0  0  0  0  0  0  0  0  0  0  0  0
    2.1434   -0.4125    0.0000 C   0  0  0  0  0  0  0  0  0  0  0  0
    2.8579    0.0000    0.0000 C   0  0  0  0  0  0  0  0  0  0  0  0
    3.5724   -0.4125    0.0000 C   0  0  0  0  0  0  0  0  0  0  0  0
    3.5724   -1.2375    0.0000 C   0  0  0  0  0  0  0  0  0  0  0  0
    2.8579   -1.6500    0.0000 C   0  0  0  0  0  0  0  0  0  0  0  0
    2.1434   -1.2375    0.0000 C   0  0  0  0  0  0  0  0  0  0  0  0
  1  2  2  0  0  0  0
  2  3  1  0  0  0  0
  2  4  1  0  0  0  0
  4  5  4  0  0  0  0
  5  6  4  0  0  0  0
  6  7  1  0  0  0  0
  7  8  4  0  0  0  0
  8  9  4  0  0  0  0
  9 10  4  0  0  0  0
 10 11  1  0  0  0  0
 11 12  4  0  0  0  0
 12 13  4  0  0  0  0
 13 14  4  0  0  0  0
 14 15  4  0  0  0  0
 15 16  4  0  0  0  0
 11 16  4  0  0  0  0
 10 17  4  0  0  0  0
 17 18  4  0  0  0  0
  7 18  4  0  0  0  0
  6 19  4  0  0  0  0
 19 20  4  0  0  0  0
 20 21  4  0  0  0  0
 21 22  4  0  0  0  0
 22 23  4  0  0  0  0
 23 24  4  0  0  0  0
 24 25  4  0  0  0  0
  4 25  4  0  0  0  0
 20 25  4  0  0  0  0
M  END
> <IC50(uM)>
0.391

> <Outcome>
1.0

> <BindingDB ID>
51126209

> <BindingDB MonomerID>
50461893

> <BindingDB Ligand Name>
CHEMBL4226167

> <Curation/DataSource>
ChEMBL

> <Article DOI>
10.1021/acs.jmedchem.7b01862

> <PMID>
29727569

> <Patent Number>
?

> <Authors>
Madak, JT; Cuthbertson, CR; Miyata, Y; Tamura, S; Petrunak, EM; Stuckey, JA; Han, Y; He, M; Sun, D; Showalter, HD; Neamati, N

> <Link to Ligand in BindingDB>
http://www.bindingdb.org/bind/chemsearch/marvin/MolStructure.jsp?monomerid=50461893

> <Link to Ligand-Target Pair in BindingDB>
http://www.bindingdb.org/jsp/dbsearch/PrimarySearch_ki.jsp?energyterm=kJ/mole&tag=r21&monomerid=50461893&enzyme=Dihydroorotate+dehydrogenase&column=ki&startPg=0&Increment=50&submit=Search

> <PubChem CID>
145969925

> <PubChem SID>
433929158

$$$$

  Mrv2115 07222212352D          

 35 37  0  0  0  0            999 V2000
    2.1434   -3.7125    0.0000 C   0  0  0  0  0  0  0  0  0  0  0  0
    2.8579   -4.1250    0.0000 C   0  0  0  0  0  0  0  0  0  0  0  0
    3.5724   -3.7125    0.0000 C   0  0  0  0  0  0  0  0  0  0  0  0
    4.2868   -4.1250    0.0000 C   0  0  0  0  0  0  0  0  0  0  0  0
    4.2868   -4.9500    0.0000 C   0  0  0  0  0  0  0  0  0  0  0  0
    5.0013   -3.7125    0.0000 O   0  0  0  0  0  0  0  0  0  0  0  0
    5.0013   -2.8875    0.0000 C   0  0  0  0  0  0  0  0  0  0  0  0
    4.2868   -2.4750    0.0000 C   0  0  0  0  0  0  0  0  0  0  0  0
    4.2868   -1.6500    0.0000 C   0  0  0  0  0  0  0  0  0  0  0  0
    3.5724   -1.2375    0.0000 N   0  0  0  0  0  0  0  0  0  0  0  0
    2.8187   -1.5731    0.0000 N   0  0  0  0  0  0  0  0  0  0  0  0
    2.2666   -0.9600    0.0000 C   0  0  0  0  0  0  0  0  0  0  0  0
    1.4462   -1.0462    0.0000 C   0  0  0  0  0  0  0  0  0  0  0  0
    1.5324   -1.8667    0.0000 C   0  0  0  0  0  0  0  0  0  0  0  0
    1.3599   -0.2257    0.0000 C   0  0  0  0  0  0  0  0  0  0  0  0
    0.6257   -1.1324    0.0000 O   0  0  0  0  0  0  0  0  0  0  0  0
    2.6791   -0.2455    0.0000 N   0  0  0  0  0  0  0  0  0  0  0  0
    2.3436    0.5082    0.0000 C   0  0  0  0  0  0  0  0  0  0  0  0
    3.4861   -0.4170    0.0000 C   0  0  0  0  0  0  0  0  0  0  0  0
    4.0992    0.1350    0.0000 O   0  0  0  0  0  0  0  0  0  0  0  0
    5.0013   -1.2375    0.0000 C   0  0  0  0  0  0  0  0  0  0  0  0
    5.0013   -0.4125    0.0000 F   0  0  0  0  0  0  0  0  0  0  0  0
    5.7158   -1.6500    0.0000 C   0  0  0  0  0  0  0  0  0  0  0  0
    5.7158   -2.4750    0.0000 C   0  0  0  0  0  0  0  0  0  0  0  0
    6.4302   -2.8875    0.0000 C   0  0  0  0  0  0  0  0  0  0  0  0
    6.4302   -3.7125    0.0000 O   0  0  0  0  0  0  0  0  0  0  0  0
    7.1447   -2.4750    0.0000 N   0  0  0  0  0  0  0  0  0  0  0  0
    7.8592   -2.8875    0.0000 C   0  0  0  0  0  0  0  0  0  0  0  0
    8.5737   -2.4750    0.0000 C   0  0  0  0  0  0  0  0  0  0  0  0
    8.5737   -1.6500    0.0000 C   0  0  0  0  0  0  0  0  0  0  0  0
    9.2881   -2.8875    0.0000 C   0  0  0  0  0  0  0  0  0  0  0  0
    9.2881   -3.7125    0.0000 C   0  0  0  0  0  0  0  0  0  0  0  0
    8.5737   -4.1250    0.0000 C   0  0  0  0  0  0  0  0  0  0  0  0
    7.8592   -3.7125    0.0000 C   0  0  0  0  0  0  0  0  0  0  0  0
    7.1447   -4.1250    0.0000 F   0  0  0  0  0  0  0  0  0  0  0  0
  1  2  1  0  0  0  0
  2  3  1  0  0  0  0
  3  4  1  0  0  0  0
  4  5  1  0  0  0  0
  4  6  1  0  0  0  0
  6  7  1  0  0  0  0
  7  8  4  0  0  0  0
  8  9  4  0  0  0  0
  9 10  1  0  0  0  0
 10 11  4  0  0  0  0
 11 12  4  0  0  0  0
 12 13  1  0  0  0  0
 13 14  1  0  0  0  0
 13 15  1  0  0  0  0
 13 16  1  0  0  0  0
 12 17  4  0  0  0  0
 17 18  1  0  0  0  0
 17 19  4  0  0  0  0
 10 19  4  0  0  0  0
 19 20  2  0  0  0  0
  9 21  4  0  0  0  0
 21 22  1  0  0  0  0
 21 23  4  0  0  0  0
 23 24  4  0  0  0  0
  7 24  4  0  0  0  0
 24 25  1  0  0  0  0
 25 26  2  0  0  0  0
 25 27  1  0  0  0  0
 27 28  1  0  0  0  0
 28 29  4  0  0  0  0
 29 30  1  0  0  0  0
 29 31  4  0  0  0  0
 31 32  4  0  0  0  0
 32 33  4  0  0  0  0
 33 34  4  0  0  0  0
 28 34  4  0  0  0  0
 34 35  1  0  0  0  0
M  END
> <IC50(uM)>
0.0045

> <Outcome>
1.0

> <BindingDB ID>
972601; 1098755

> <BindingDB MonomerID>
470480

> <BindingDB Ligand Name>
5-fluoro-N-(2-fluoro-6-methylphenyl)-4-[3-(2-hydroxypropan-2-yl)-4-methyl-5-oxo-4,5-dihydro-1H-1,2,4-triazol-1-yl]-2-[(2S)-pentan-2-yloxy]benzamide::US10815215, Example 143; 5-fluoro-N-(2-fluoro-6-methylphenyl)-4-[3-(2-hydroxypropan-2-yl)-4-methyl-5-oxo-4,5-dihydro-1H-1,2,4-triazol-1-yl]-2-[(2S)-pentan-2-yloxy]benzamide::US10815215, Example 143::US11130745, Example 143

> <Curation/DataSource>
US Patent

> <Article DOI>
?

> <PMID>
?

> <Patent Number>
US10815215; US11130745

> <Authors>
Gradl, SN; Nguyen, D; Eis, K; Gunther, J; Stellfeld, T; Janzer, A; Christian, S; Muller, T; Sheikh, SE; Zhou, HJ; Zhao, C; Sykes, DB; Ferrara, SJ; Liu, K; Krober, M; Merz, C; Niehues, M; Schafer, M; Zimmermann, K; Nising, CF; Gradl, SN; Nguyen, D; Eis, K; Gunther, J; Stellfeld, T; Janzer, A; Christian, S; Muller, T; Sheikh, SE; Sykes, DB; Ferrara, SJ; Krober, M; Merz, C; Niehues, M; Schafer, M; Zimmermann, K; Nising, CF

> <Link to Ligand in BindingDB>
http://www.bindingdb.org/bind/chemsearch/marvin/MolStructure.jsp?monomerid=470480

> <Link to Ligand-Target Pair in BindingDB>
http://www.bindingdb.org/jsp/dbsearch/PrimarySearch_ki.jsp?energyterm=kJ/mole&tag=r21&monomerid=470480&enzyme=Dihydroorotate+dehydrogenase&column=ki&startPg=0&Increment=50&submit=Search

> <PubChem CID>
142335809

> <PubChem SID>
441609657

$$$$

  Mrv2115 07222212352D          

 37 41  0  0  0  0            999 V2000
   -1.8659    1.4455    0.0000 C   0  0  0  0  0  0  0  0  0  0  0  0
   -2.6909    1.4455    0.0000 C   0  0  0  0  0  0  0  0  0  0  0  0
   -3.1034    0.7310    0.0000 O   0  0  0  0  0  0  0  0  0  0  0  0
   -2.6909    0.0165    0.0000 C   0  0  0  0  0  0  0  0  0  0  0  0
   -1.8659    0.0165    0.0000 C   0  0  0  0  0  0  0  0  0  0  0  0
   -1.4534   -0.6979    0.0000 C   0  0  0  0  0  0  0  0  0  0  0  0
   -0.6284   -0.6979    0.0000 N   0  0  0  0  0  0  0  0  0  0  0  0
   -0.1435   -1.3654    0.0000 N   0  0  0  0  0  0  0  0  0  0  0  0
    0.6411   -1.1104    0.0000 C   0  0  0  0  0  0  0  0  0  0  0  0
    0.6411   -0.2854    0.0000 N   0  0  0  0  0  0  0  0  0  0  0  0
   -0.1435   -0.0305    0.0000 C   0  0  0  0  0  0  0  0  0  0  0  0
   -0.3984    0.7541    0.0000 O   0  0  0  0  0  0  0  0  0  0  0  0
    1.3556    0.1271    0.0000 C   0  0  0  0  0  0  0  0  0  0  0  0
    2.0701   -0.2854    0.0000 C   0  0  0  0  0  0  0  0  0  0  0  0
    2.0701   -1.1104    0.0000 C   0  0  0  0  0  0  0  0  0  0  0  0
    1.3556   -1.5229    0.0000 C   0  0  0  0  0  0  0  0  0  0  0  0
   -1.8659   -1.4124    0.0000 C   0  0  0  0  0  0  0  0  0  0  0  0
   -1.4534   -2.1269    0.0000 F   0  0  0  0  0  0  0  0  0  0  0  0
   -2.6909   -1.4124    0.0000 C   0  0  0  0  0  0  0  0  0  0  0  0
   -3.1034   -0.6979    0.0000 C   0  0  0  0  0  0  0  0  0  0  0  0
   -3.9284   -0.6979    0.0000 C   0  0  0  0  0  0  0  0  0  0  0  0
   -4.3409    0.0165    0.0000 O   0  0  0  0  0  0  0  0  0  0  0  0
   -4.3409   -1.4124    0.0000 N   0  0  0  0  0  0  0  0  0  0  0  0
   -5.1659   -1.4124    0.0000 C   0  0  0  0  0  0  0  0  0  0  0  0
   -5.5784   -2.1269    0.0000 C   0  0  0  0  0  0  0  0  0  0  0  0
   -5.1659   -2.8414    0.0000 F   0  0  0  0  0  0  0  0  0  0  0  0
   -6.4034   -2.1269    0.0000 C   0  0  0  0  0  0  0  0  0  0  0  0
   -6.8159   -1.4124    0.0000 C   0  0  0  0  0  0  0  0  0  0  0  0
   -6.4034   -0.6979    0.0000 C   0  0  0  0  0  0  0  0  0  0  0  0
   -5.5784   -0.6979    0.0000 C   0  0  0  0  0  0  0  0  0  0  0  0
   -5.1659    0.0165    0.0000 F   0  0  0  0  0  0  0  0  0  0  0  0
   -3.1034    2.1599    0.0000 C   0  0  0  0  0  0  0  0  0  0  0  0
   -3.9284    2.1599    0.0000 C   0  0  0  0  0  0  0  0  0  0  0  0
   -4.3409    2.8744    0.0000 C   0  0  0  0  0  0  0  0  0  0  0  0
   -3.9284    3.5889    0.0000 C   0  0  0  0  0  0  0  0  0  0  0  0
   -3.1034    3.5889    0.0000 C   0  0  0  0  0  0  0  0  0  0  0  0
   -2.6909    2.8744    0.0000 C   0  0  0  0  0  0  0  0  0  0  0  0
  1  2  1  0  0  0  0
  2  3  1  0  0  0  0
  3  4  1  0  0  0  0
  4  5  4  0  0  0  0
  5  6  4  0  0  0  0
  6  7  1  0  0  0  0
  7  8  4  0  0  0  0
  8  9  4  0  0  0  0
  9 10  4  0  0  0  0
 10 11  4  0  0  0  0
  7 11  4  0  0  0  0
 11 12  2  0  0  0  0
 10 13  1  0  0  0  0
 13 14  1  0  0  0  0
 14 15  1  0  0  0  0
 15 16  1  0  0  0  0
  9 16  1  0  0  0  0
  6 17  4  0  0  0  0
 17 18  1  0  0  0  0
 17 19  4  0  0  0  0
 19 20  4  0  0  0  0
  4 20  4  0  0  0  0
 20 21  1  0  0  0  0
 21 22  2  0  0  0  0
 21 23  1  0  0  0  0
 23 24  1  0  0  0  0
 24 25  4  0  0  0  0
 25 26  1  0  0  0  0
 25 27  4  0  0  0  0
 27 28  4  0  0  0  0
 28 29  4  0  0  0  0
 29 30  4  0  0  0  0
 24 30  4  0  0  0  0
 30 31  1  0  0  0  0
  2 32  1  0  0  0  0
 32 33  4  0  0  0  0
 33 34  4  0  0  0  0
 34 35  4  0  0  0  0
 35 36  4  0  0  0  0
 36 37  4  0  0  0  0
 32 37  4  0  0  0  0
M  END
> <IC50(uM)>
0.009433333333333334

> <Outcome>
1.0

> <BindingDB ID>
1020666; 1020667

> <BindingDB MonomerID>
490594

> <BindingDB Ligand Name>
N-(2,6-difluorophenyl)-5-fluoro-4-(3-oxo-5,6,7,8-tetrahydro[1,2,4]triazolo[4,3-a]pyridin-2(3H)-yl)-2-[(1S)-1-phenylethoxy]benzamide::US10968216, Example 262

> <Curation/DataSource>
US Patent

> <Article DOI>
?

> <PMID>
?

> <Patent Number>
US10968216

> <Authors>
Gradl, SN; Nguyen, D; Eis, K; Gunther, J; Stellfeld, T; Janzer, A; Christian, S; Mueller, T; Sheikh, SE; Zhou, HJ; Zhao, C; Sykes, DB; Ferrara, SJ; Liu, K; Herbert, SA; Merz, C; Niehues, M; Nising, CF; Schafer, M; Zimmermann, K; Knablein, J; Thede, K; Faupel, T

> <Link to Ligand in BindingDB>
http://www.bindingdb.org/bind/chemsearch/marvin/MolStructure.jsp?monomerid=490594

> <Link to Ligand-Target Pair in BindingDB>
http://www.bindingdb.org/jsp/dbsearch/PrimarySearch_ki.jsp?energyterm=kJ/mole&tag=r21&monomerid=490594&enzyme=Dihydroorotate+dehydrogenase&column=ki&startPg=0&Increment=50&submit=Search

> <PubChem CID>
142335892

> <PubChem SID>
447117320

$$$$

  Mrv2115 07222212352D          

 33 37  0  0  0  0            999 V2000
    5.4957    8.1229    0.0000 C   0  0  0  0  0  0  0  0  0  0  0  0
    5.4957    7.2979    0.0000 N   0  0  0  0  0  0  0  0  0  0  0  0
    6.2102    6.8854    0.0000 C   0  0  0  0  0  0  0  0  0  0  0  0
    6.2102    6.0604    0.0000 C   0  0  0  0  0  0  0  0  0  0  0  0
    5.4957    5.6479    0.0000 N   0  0  0  0  0  0  0  0  0  0  0  0
    5.4957    4.8229    0.0000 C   0  0  0  0  0  0  0  0  0  0  0  0
    6.2102    4.4104    0.0000 C   0  0  0  0  0  0  0  0  0  0  0  0
    6.9246    4.8229    0.0000 C   0  0  0  0  0  0  0  0  0  0  0  0
    7.6391    4.4104    0.0000 C   0  0  0  0  0  0  0  0  0  0  0  0
    7.6391    3.5854    0.0000 C   0  0  0  0  0  0  0  0  0  0  0  0
    6.9246    3.1729    0.0000 C   0  0  0  0  0  0  0  0  0  0  0  0
    6.2102    3.5854    0.0000 C   0  0  0  0  0  0  0  0  0  0  0  0
    5.4957    3.1729    0.0000 C   0  0  0  0  0  0  0  0  0  0  0  0
    5.4957    2.3479    0.0000 C   0  0  0  0  0  0  0  0  0  0  0  0
    4.7812    1.9354    0.0000 C   0  0  0  0  0  0  0  0  0  0  0  0
    4.0668    2.3479    0.0000 C   0  0  0  0  0  0  0  0  0  0  0  0
    3.3523    1.9354    0.0000 C   0  0  0  0  0  0  0  0  0  0  0  0
    3.3523    1.1104    0.0000 C   0  0  0  0  0  0  0  0  0  0  0  0
    2.6378    0.6979    0.0000 C   0  0  0  0  0  0  0  0  0  0  0  0
    2.6378   -0.1271    0.0000 C   0  0  0  0  0  0  0  0  0  0  0  0
    1.9233   -0.5396    0.0000 O   0  0  0  0  0  0  0  0  0  0  0  0
    3.3523   -0.5396    0.0000 O   0  0  0  0  0  0  0  0  0  0  0  0
    1.9233    1.1104    0.0000 C   0  0  0  0  0  0  0  0  0  0  0  0
    1.1387    0.8555    0.0000 N   0  0  0  0  0  0  0  0  0  0  0  0
    0.6538    1.5229    0.0000 N   0  0  0  0  0  0  0  0  0  0  0  0
   -0.1712    1.5229    0.0000 C   0  0  0  0  0  0  0  0  0  0  0  0
    1.1387    2.1904    0.0000 N   0  0  0  0  0  0  0  0  0  0  0  0
    1.9233    1.9354    0.0000 C   0  0  0  0  0  0  0  0  0  0  0  0
    2.6378    2.3479    0.0000 C   0  0  0  0  0  0  0  0  0  0  0  0
    4.0668    3.1729    0.0000 C   0  0  0  0  0  0  0  0  0  0  0  0
    4.7812    3.5854    0.0000 C   0  0  0  0  0  0  0  0  0  0  0  0
    4.7812    6.0604    0.0000 C   0  0  0  0  0  0  0  0  0  0  0  0
    4.7812    6.8854    0.0000 C   0  0  0  0  0  0  0  0  0  0  0  0
  1  2  1  0  0  0  0
  2  3  1  0  0  0  0
  3  4  1  0  0  0  0
  4  5  1  0  0  0  0
  5  6  1  0  0  0  0
  6  7  1  0  0  0  0
  7  8  4  0  0  0  0
  8  9  4  0  0  0  0
  9 10  4  0  0  0  0
 10 11  4  0  0  0  0
 11 12  4  0  0  0  0
  7 12  4  0  0  0  0
 12 13  1  0  0  0  0
 13 14  4  0  0  0  0
 14 15  4  0  0  0  0
 15 16  4  0  0  0  0
 16 17  1  0  0  0  0
 17 18  4  0  0  0  0
 18 19  4  0  0  0  0
 19 20  1  0  0  0  0
 20 21  2  0  0  0  0
 20 22  1  0  0  0  0
 19 23  4  0  0  0  0
 23 24  4  0  0  0  0
 24 25  4  0  0  0  0
 25 26  1  0  0  0  0
 25 27  4  0  0  0  0
 27 28  4  0  0  0  0
 23 28  4  0  0  0  0
 28 29  4  0  0  0  0
 17 29  4  0  0  0  0
 16 30  4  0  0  0  0
 30 31  4  0  0  0  0
 13 31  4  0  0  0  0
  5 32  1  0  0  0  0
 32 33  1  0  0  0  0
  2 33  1  0  0  0  0
M  END
> <IC50(uM)>
1.0

> <Outcome>
1.0

> <BindingDB ID>
1100182

> <BindingDB MonomerID>
520641

> <BindingDB Ligand Name>
2-methyl-6-(2'-((4-methylpiperazin-1-yl)methyl)-[1,1'-biphenyl]-4-yl)-2H- benzo[d][1,2,3]triazole-4-carboxylic acid;::US11147801, Compound 30

> <Curation/DataSource>
US Patent

> <Article DOI>
?

> <PMID>
?

> <Patent Number>
US11147801

> <Authors>
Nellore, K; Hosahalli, S

> <Link to Ligand in BindingDB>
http://www.bindingdb.org/bind/chemsearch/marvin/MolStructure.jsp?monomerid=520641

> <Link to Ligand-Target Pair in BindingDB>
http://www.bindingdb.org/jsp/dbsearch/PrimarySearch_ki.jsp?energyterm=kJ/mole&tag=r21&monomerid=520641&enzyme=Dihydroorotate+dehydrogenase&column=ki&startPg=0&Increment=50&submit=Search

> <PubChem CID>
?

> <PubChem SID>
?

$$$$

  Mrv2115 07222212352D          

 34 38  0  0  0  0            999 V2000
   -5.1212    0.7310    0.0000 C   0  0  0  0  0  0  0  0  0  0  0  0
   -4.2962    0.7310    0.0000 O   0  0  0  0  0  0  0  0  0  0  0  0
   -3.8837    0.0165    0.0000 C   0  0  0  0  0  0  0  0  0  0  0  0
   -3.0587    0.0165    0.0000 C   0  0  0  0  0  0  0  0  0  0  0  0
   -2.6462   -0.6979    0.0000 C   0  0  0  0  0  0  0  0  0  0  0  0
   -1.8212   -0.6979    0.0000 C   0  0  0  0  0  0  0  0  0  0  0  0
   -1.4087    0.0165    0.0000 C   0  0  0  0  0  0  0  0  0  0  0  0
   -0.5837    0.0165    0.0000 C   0  0  0  0  0  0  0  0  0  0  0  0
   -0.1712   -0.6979    0.0000 C   0  0  0  0  0  0  0  0  0  0  0  0
    0.6538   -0.6979    0.0000 C   0  0  0  0  0  0  0  0  0  0  0  0
    1.1387   -0.0305    0.0000 N   0  0  0  0  0  0  0  0  0  0  0  0
    1.9233   -0.2854    0.0000 C   0  0  0  0  0  0  0  0  0  0  0  0
    2.6378    0.1271    0.0000 C   0  0  0  0  0  0  0  0  0  0  0  0
    2.6378    0.9521    0.0000 C   0  0  0  0  0  0  0  0  0  0  0  0
    3.3523    1.3646    0.0000 N   0  0  0  0  0  0  0  0  0  0  0  0
    1.9233    1.3646    0.0000 O   0  0  0  0  0  0  0  0  0  0  0  0
    3.3523   -0.2854    0.0000 C   0  0  0  0  0  0  0  0  0  0  0  0
    3.3523   -1.1104    0.0000 C   0  0  0  0  0  0  0  0  0  0  0  0
    4.0668   -1.5229    0.0000 F   0  0  0  0  0  0  0  0  0  0  0  0
    2.6378   -1.5229    0.0000 C   0  0  0  0  0  0  0  0  0  0  0  0
    1.9233   -1.1104    0.0000 C   0  0  0  0  0  0  0  0  0  0  0  0
    1.1387   -1.3654    0.0000 N   0  0  0  0  0  0  0  0  0  0  0  0
   -0.5837   -1.4124    0.0000 C   0  0  0  0  0  0  0  0  0  0  0  0
   -0.1712   -2.1269    0.0000 F   0  0  0  0  0  0  0  0  0  0  0  0
   -1.4087   -1.4124    0.0000 C   0  0  0  0  0  0  0  0  0  0  0  0
   -3.0587   -1.4124    0.0000 C   0  0  0  0  0  0  0  0  0  0  0  0
   -3.8837   -1.4124    0.0000 C   0  0  0  0  0  0  0  0  0  0  0  0
   -4.2962   -0.6979    0.0000 C   0  0  0  0  0  0  0  0  0  0  0  0
   -5.1212   -0.6979    0.0000 N   0  0  0  0  0  0  0  0  0  0  0  0
   -5.5337   -1.4124    0.0000 C   0  0  0  0  0  0  0  0  0  0  0  0
   -5.1212   -2.1269    0.0000 O   0  0  0  0  0  0  0  0  0  0  0  0
   -6.3587   -1.4124    0.0000 C   0  0  0  0  0  0  0  0  0  0  0  0
   -7.0732   -1.8249    0.0000 C   0  0  0  0  0  0  0  0  0  0  0  0
   -7.0732   -0.9999    0.0000 C   0  0  0  0  0  0  0  0  0  0  0  0
  1  2  1  0  0  0  0
  2  3  1  0  0  0  0
  3  4  4  0  0  0  0
  4  5  4  0  0  0  0
  5  6  1  0  0  0  0
  6  7  4  0  0  0  0
  7  8  4  0  0  0  0
  8  9  4  0  0  0  0
  9 10  1  0  0  0  0
 10 11  4  0  0  0  0
 11 12  4  0  0  0  0
 12 13  4  0  0  0  0
 13 14  1  0  0  0  0
 14 15  1  0  0  0  0
 14 16  2  0  0  0  0
 13 17  4  0  0  0  0
 17 18  4  0  0  0  0
 18 19  1  0  0  0  0
 18 20  4  0  0  0  0
 20 21  4  0  0  0  0
 12 21  4  0  0  0  0
 21 22  4  0  0  0  0
 10 22  4  0  0  0  0
  9 23  4  0  0  0  0
 23 24  1  0  0  0  0
 23 25  4  0  0  0  0
  6 25  4  0  0  0  0
  5 26  4  0  0  0  0
 26 27  4  0  0  0  0
 27 28  4  0  0  0  0
  3 28  4  0  0  0  0
 28 29  1  0  0  0  0
 29 30  1  0  0  0  0
 30 31  2  0  0  0  0
 30 32  1  0  0  0  0
 32 33  1  0  0  0  0
 33 34  1  0  0  0  0
 32 34  1  0  0  0  0
M  STY  1   1 DAT
M  SAL   1  1  22
M  SDT   1 MRV_IMPLICIT_H                                        
M  SDD   1     0.5304   -0.4125    DR    ALL  0       0  
M  SED   1 IMPL_H1
M  END
> <IC50(uM)>
23.0

> <Outcome>
0.0

> <BindingDB ID>
50358227

> <BindingDB MonomerID>
50096152

> <BindingDB Ligand Name>
CHEMBL3593996

> <Curation/DataSource>
ChEMBL

> <Article DOI>
10.1016/j.bmc.2015.05.051

> <PMID>
26088338

> <Patent Number>
?

> <Authors>
Abdullah, I; Chee, CF; Lee, YK; Thunuguntla, SS; Satish Reddy, K; Nellore, K; Antony, T; Verma, J; Mun, KW; Othman, S; Subramanya, H; Rahman, NA

> <Link to Ligand in BindingDB>
http://www.bindingdb.org/bind/chemsearch/marvin/MolStructure.jsp?monomerid=50096152

> <Link to Ligand-Target Pair in BindingDB>
http://www.bindingdb.org/jsp/dbsearch/PrimarySearch_ki.jsp?energyterm=kJ/mole&tag=r21&monomerid=50096152&enzyme=Dihydroorotate+dehydrogenase&column=ki&startPg=0&Increment=50&submit=Search

> <PubChem CID>
122182324

> <PubChem SID>
318473805

$$$$

  Mrv2115 07222212352D          

 24 25  0  0  0  0            999 V2000
    0.0000   -4.9500    0.0000 C   0  0  0  0  0  0  0  0  0  0  0  0
    0.7145   -5.3625    0.0000 C   0  0  0  0  0  0  0  0  0  0  0  0
    0.7145   -6.1875    0.0000 O   0  0  0  0  0  0  0  0  0  0  0  0
    1.4289   -4.9500    0.0000 C   0  0  0  0  0  0  0  0  0  0  0  0
    1.4289   -4.1250    0.0000 C   0  0  0  0  0  0  0  0  0  0  0  0
    1.4289   -3.3000    0.0000 N   0  0  0  0  0  0  0  0  0  0  0  0
    2.1434   -5.3625    0.0000 C   0  0  0  0  0  0  0  0  0  0  0  0
    2.1434   -6.1875    0.0000 O   0  0  0  0  0  0  0  0  0  0  0  0
    2.8579   -4.9500    0.0000 N   0  0  0  0  0  0  0  0  0  0  0  0
    3.5724   -5.3625    0.0000 C   0  0  0  0  0  0  0  0  0  0  0  0
    4.2868   -4.9500    0.0000 C   0  0  0  0  0  0  0  0  0  0  0  0
    5.0013   -5.3625    0.0000 C   0  0  0  0  0  0  0  0  0  0  0  0
    5.0013   -6.1875    0.0000 C   0  0  0  0  0  0  0  0  0  0  0  0
    5.7158   -6.6000    0.0000 C   0  0  0  0  0  0  0  0  0  0  0  0
    6.4302   -6.1875    0.0000 C   0  0  0  0  0  0  0  0  0  0  0  0
    7.1447   -6.6000    0.0000 C   0  0  0  0  0  0  0  0  0  0  0  0
    7.1447   -7.4250    0.0000 C   0  0  0  0  0  0  0  0  0  0  0  0
    6.4302   -7.8375    0.0000 C   0  0  0  0  0  0  0  0  0  0  0  0
    6.4302   -8.6625    0.0000 Cl  0  0  0  0  0  0  0  0  0  0  0  0
    5.7158   -7.4250    0.0000 C   0  0  0  0  0  0  0  0  0  0  0  0
    5.0013   -7.8375    0.0000 Cl  0  0  0  0  0  0  0  0  0  0  0  0
    4.2868   -6.6000    0.0000 C   0  0  0  0  0  0  0  0  0  0  0  0
    3.5724   -6.1875    0.0000 C   0  0  0  0  0  0  0  0  0  0  0  0
    2.8579   -6.6000    0.0000 Cl  0  0  0  0  0  0  0  0  0  0  0  0
  1  2  1  0  0  0  0
  2  3  2  0  0  0  0
  2  4  1  0  0  0  0
  4  5  1  0  0  0  0
  5  6  3  0  0  0  0
  4  7  1  0  0  0  0
  7  8  2  0  0  0  0
  7  9  1  0  0  0  0
  9 10  1  0  0  0  0
 10 11  4  0  0  0  0
 11 12  4  0  0  0  0
 12 13  4  0  0  0  0
 13 14  1  0  0  0  0
 14 15  4  0  0  0  0
 15 16  4  0  0  0  0
 16 17  4  0  0  0  0
 17 18  4  0  0  0  0
 18 19  1  0  0  0  0
 18 20  4  0  0  0  0
 14 20  4  0  0  0  0
 20 21  1  0  0  0  0
 13 22  4  0  0  0  0
 22 23  4  0  0  0  0
 10 23  4  0  0  0  0
 23 24  1  0  0  0  0
M  END
> <IC50(uM)>
0.33

> <Outcome>
1.0

> <BindingDB ID>
52790

> <BindingDB MonomerID>
29030

> <BindingDB Ligand Name>
cyanohydroxybutenamide, 20

> <Curation/DataSource>
Curated from the literature by BindingDB

> <Article DOI>
10.1021/jm800963t

> <PMID>
19351152

> <Patent Number>
?

> <Authors>
Davies, M; Heikkil&auml;, T; McConkey, GA; Fishwick, CW; Parsons, MR; Johnson, AP

> <Link to Ligand in BindingDB>
http://www.bindingdb.org/bind/chemsearch/marvin/MolStructure.jsp?monomerid=29030

> <Link to Ligand-Target Pair in BindingDB>
http://www.bindingdb.org/jsp/dbsearch/PrimarySearch_ki.jsp?energyterm=kJ/mole&tag=r21&monomerid=29030&enzyme=Dihydroorotate+dehydrogenase&column=ki&startPg=0&Increment=50&submit=Search

> <PubChem CID>
91896056

> <PubChem SID>
81054459

$$$$

  Mrv2115 07222212352D          

 18 19  0  0  0  0            999 V2000
   -0.7145   -3.7125    0.0000 C   0  0  0  0  0  0  0  0  0  0  0  0
   -0.7145   -2.8875    0.0000 C   0  0  0  0  0  0  0  0  0  0  0  0
   -1.4289   -2.4750    0.0000 C   0  0  0  0  0  0  0  0  0  0  0  0
    0.0000   -2.4750    0.0000 C   0  0  0  0  0  0  0  0  0  0  0  0
    0.0000   -1.6500    0.0000 C   0  0  0  0  0  0  0  0  0  0  0  0
    0.7145   -1.2375    0.0000 C   0  0  0  0  0  0  0  0  0  0  0  0
    0.7145   -0.4125    0.0000 C   0  0  0  0  0  0  0  0  0  0  0  0
    0.0000    0.0000    0.0000 O   0  0  0  0  0  0  0  0  0  0  0  0
    1.4289    0.0000    0.0000 C   0  0  0  0  0  0  0  0  0  0  0  0
    1.4289    0.8250    0.0000 O   0  0  0  0  0  0  0  0  0  0  0  0
    2.1434   -0.4125    0.0000 C   0  0  0  0  0  0  0  0  0  0  0  0
    2.8579    0.0000    0.0000 C   0  0  0  0  0  0  0  0  0  0  0  0
    3.5724   -0.4125    0.0000 C   0  0  0  0  0  0  0  0  0  0  0  0
    3.5724   -1.2375    0.0000 C   0  0  0  0  0  0  0  0  0  0  0  0
    2.8579   -1.6500    0.0000 C   0  0  0  0  0  0  0  0  0  0  0  0
    2.1434   -1.2375    0.0000 C   0  0  0  0  0  0  0  0  0  0  0  0
    1.4289   -1.6500    0.0000 C   0  0  0  0  0  0  0  0  0  0  0  0
    1.4289   -2.4750    0.0000 O   0  0  0  0  0  0  0  0  0  0  0  0
  1  2  1  0  0  0  0
  2  3  1  0  0  0  0
  2  4  1  0  0  0  0
  4  5  1  0  0  0  0
  5  6  1  0  0  0  0
  6  7  2  0  0  0  0
  7  8  1  0  0  0  0
  7  9  1  0  0  0  0
  9 10  2  0  0  0  0
  9 11  1  0  0  0  0
 11 12  4  0  0  0  0
 12 13  4  0  0  0  0
 13 14  4  0  0  0  0
 14 15  4  0  0  0  0
 15 16  4  0  0  0  0
 11 16  4  0  0  0  0
 16 17  1  0  0  0  0
  6 17  1  0  0  0  0
 17 18  2  0  0  0  0
M  END
> <IC50(uM)>
0.709

> <Outcome>
1.0

> <BindingDB ID>
51282831

> <BindingDB MonomerID>
50523217

> <BindingDB Ligand Name>
CHEMBL155771

> <Curation/DataSource>
ChEMBL

> <Article DOI>
10.1016/j.ejmech.2019.02.018

> <PMID>
30776695

> <Patent Number>
?

> <Authors>
Calil, FA; David, JS; Chiappetta, ERC; Fumagalli, F; Mello, RB; Leite, FHA; Castilho, MS; Emery, FS; Nonato, MC

> <Link to Ligand in BindingDB>
http://www.bindingdb.org/bind/chemsearch/marvin/MolStructure.jsp?monomerid=50523217

> <Link to Ligand-Target Pair in BindingDB>
http://www.bindingdb.org/jsp/dbsearch/PrimarySearch_ki.jsp?energyterm=kJ/mole&tag=r21&monomerid=50523217&enzyme=Dihydroorotate+dehydrogenase&column=ki&startPg=0&Increment=50&submit=Search

> <PubChem CID>
76864

> <PubChem SID>
440731799

$$$$

  Mrv2115 07222212352D          

 26 29  0  0  0  0            999 V2000
   -3.9849    0.6507    0.0000 C   0  0  0  0  0  0  0  0  0  0  0  0
   -3.9849   -0.1743    0.0000 C   0  0  0  0  0  0  0  0  0  0  0  0
   -3.2704   -0.5868    0.0000 C   0  0  0  0  0  0  0  0  0  0  0  0
   -3.2704   -1.4118    0.0000 C   0  0  0  0  0  0  0  0  0  0  0  0
   -2.5559   -1.8243    0.0000 N   0  0  0  0  0  0  0  0  0  0  0  0
   -2.5559   -2.6493    0.0000 C   0  0  0  0  0  0  0  0  0  0  0  0
   -3.2704   -3.0618    0.0000 C   0  0  0  0  0  0  0  0  0  0  0  0
   -3.2704   -3.8868    0.0000 C   0  0  0  0  0  0  0  0  0  0  0  0
   -2.5559   -4.2993    0.0000 C   0  0  0  0  0  0  0  0  0  0  0  0
   -2.5559   -5.1243    0.0000 C   0  0  0  0  0  0  0  0  0  0  0  0
   -2.1434   -5.8388    0.0000 C   0  0  0  0  0  0  0  0  0  0  0  0
   -2.9684   -5.8388    0.0000 C   0  0  0  0  0  0  0  0  0  0  0  0
   -1.8414   -3.8868    0.0000 C   0  0  0  0  0  0  0  0  0  0  0  0
   -1.8414   -3.0618    0.0000 C   0  0  0  0  0  0  0  0  0  0  0  0
   -1.1270   -2.6493    0.0000 C   0  0  0  0  0  0  0  0  0  0  0  0
   -1.1270   -1.8243    0.0000 O   0  0  0  0  0  0  0  0  0  0  0  0
   -0.4125   -3.0618    0.0000 O   0  0  0  0  0  0  0  0  0  0  0  0
   -3.9849   -1.8243    0.0000 C   0  0  0  0  0  0  0  0  0  0  0  0
   -4.6993   -1.4118    0.0000 N   0  0  0  0  0  0  0  0  0  0  0  0
   -4.6993   -0.5868    0.0000 C   0  0  0  0  0  0  0  0  0  0  0  0
   -5.4138   -0.1743    0.0000 C   0  0  0  0  0  0  0  0  0  0  0  0
   -6.1283   -0.5868    0.0000 C   0  0  0  0  0  0  0  0  0  0  0  0
   -6.8427   -0.1743    0.0000 C   0  0  0  0  0  0  0  0  0  0  0  0
   -6.8427    0.6507    0.0000 C   0  0  0  0  0  0  0  0  0  0  0  0
   -6.1283    1.0632    0.0000 C   0  0  0  0  0  0  0  0  0  0  0  0
   -5.4138    0.6507    0.0000 C   0  0  0  0  0  0  0  0  0  0  0  0
  1  2  1  0  0  0  0
  2  3  4  0  0  0  0
  3  4  4  0  0  0  0
  4  5  1  0  0  0  0
  5  6  1  0  0  0  0
  6  7  4  0  0  0  0
  7  8  4  0  0  0  0
  8  9  4  0  0  0  0
  9 10  1  0  0  0  0
 10 11  1  0  0  0  0
 11 12  1  0  0  0  0
 10 12  1  0  0  0  0
  9 13  4  0  0  0  0
 13 14  4  0  0  0  0
  6 14  4  0  0  0  0
 14 15  1  0  0  0  0
 15 16  2  0  0  0  0
 15 17  1  0  0  0  0
  4 18  4  0  0  0  0
 18 19  4  0  0  0  0
 19 20  4  0  0  0  0
  2 20  4  0  0  0  0
 20 21  1  0  0  0  0
 21 22  4  0  0  0  0
 22 23  4  0  0  0  0
 23 24  4  0  0  0  0
 24 25  4  0  0  0  0
 25 26  4  0  0  0  0
 21 26  4  0  0  0  0
M  END
> <IC50(uM)>
0.006

> <Outcome>
1.0

> <BindingDB ID>
220007

> <BindingDB MonomerID>
102477

> <BindingDB Ligand Name>
US8536165, 74

> <Curation/DataSource>
US Patent

> <Article DOI>
?

> <PMID>
?

> <Patent Number>
US8536165

> <Authors>
Castro Palomino Laria, JC; Terricabras Belart, E; Erra Sola, M; Navarro Romero, E; Fonquerna Pou, S; Cardus Figueras, A; Lozoya Toribio, ME

> <Link to Ligand in BindingDB>
http://www.bindingdb.org/bind/chemsearch/marvin/MolStructure.jsp?monomerid=102477

> <Link to Ligand-Target Pair in BindingDB>
http://www.bindingdb.org/jsp/dbsearch/PrimarySearch_ki.jsp?energyterm=kJ/mole&tag=r21&monomerid=102477&enzyme=Dihydroorotate+dehydrogenase&column=ki&startPg=0&Increment=50&submit=Search

> <PubChem CID>
56968466

> <PubChem SID>
172097768

$$$$

  Mrv2115 07222212352D          

 36 39  0  0  0  0            999 V2000
   -4.3409    1.4455    0.0000 C   0  0  0  0  0  0  0  0  0  0  0  0
   -5.1659    1.4455    0.0000 O   0  0  0  0  0  0  0  0  0  0  0  0
   -5.5784    0.7310    0.0000 C   0  0  0  0  0  0  0  0  0  0  0  0
   -6.4034    0.7310    0.0000 C   0  0  0  0  0  0  0  0  0  0  0  0
   -6.8159    0.0165    0.0000 C   0  0  0  0  0  0  0  0  0  0  0  0
   -6.4034   -0.6979    0.0000 C   0  0  0  0  0  0  0  0  0  0  0  0
   -5.5784   -0.6979    0.0000 C   0  0  0  0  0  0  0  0  0  0  0  0
   -5.1659   -1.4124    0.0000 C   0  0  0  0  0  0  0  0  0  0  0  0
   -5.1659    0.0165    0.0000 C   0  0  0  0  0  0  0  0  0  0  0  0
   -4.3409    0.0165    0.0000 N   0  0  0  0  0  0  0  0  0  0  0  0
   -3.9284   -0.6979    0.0000 C   0  0  0  0  0  0  0  0  0  0  0  0
   -4.3409   -1.4124    0.0000 O   0  0  0  0  0  0  0  0  0  0  0  0
   -3.1034   -0.6979    0.0000 C   0  0  0  0  0  0  0  0  0  0  0  0
   -2.6909    0.0165    0.0000 C   0  0  0  0  0  0  0  0  0  0  0  0
   -1.8659    0.0165    0.0000 C   0  0  0  0  0  0  0  0  0  0  0  0
   -1.4534    0.7310    0.0000 F   0  0  0  0  0  0  0  0  0  0  0  0
   -1.4534   -0.6979    0.0000 C   0  0  0  0  0  0  0  0  0  0  0  0
   -0.6284   -0.6979    0.0000 N   0  0  0  0  0  0  0  0  0  0  0  0
   -0.1435   -1.3654    0.0000 N   0  0  0  0  0  0  0  0  0  0  0  0
    0.6411   -1.1104    0.0000 C   0  0  0  0  0  0  0  0  0  0  0  0
    0.6411   -0.2854    0.0000 N   0  0  0  0  0  0  0  0  0  0  0  0
   -0.1435   -0.0305    0.0000 C   0  0  0  0  0  0  0  0  0  0  0  0
   -0.3984    0.7541    0.0000 O   0  0  0  0  0  0  0  0  0  0  0  0
    1.3556    0.1271    0.0000 C   0  0  0  0  0  0  0  0  0  0  0  0
    2.0701   -0.2854    0.0000 C   0  0  0  0  0  0  0  0  0  0  0  0
    2.0701   -1.1104    0.0000 O   0  0  0  0  0  0  0  0  0  0  0  0
    1.3556   -1.5229    0.0000 C   0  0  0  0  0  0  0  0  0  0  0  0
   -1.8659   -1.4124    0.0000 C   0  0  0  0  0  0  0  0  0  0  0  0
   -2.6909   -1.4124    0.0000 C   0  0  0  0  0  0  0  0  0  0  0  0
   -3.1034   -2.1269    0.0000 O   0  0  0  0  0  0  0  0  0  0  0  0
   -2.6909   -2.8414    0.0000 C   0  0  0  0  0  0  0  0  0  0  0  0
   -1.8659   -2.8414    0.0000 C   0  0  0  0  0  0  0  0  0  0  0  0
   -3.1034   -3.5558    0.0000 C   0  0  0  0  0  0  0  0  0  0  0  0
   -3.8179   -3.1433    0.0000 F   0  0  0  0  0  0  0  0  0  0  0  0
   -2.3890   -3.9683    0.0000 F   0  0  0  0  0  0  0  0  0  0  0  0
   -3.5159   -4.2703    0.0000 F   0  0  0  0  0  0  0  0  0  0  0  0
  1  2  1  0  0  0  0
  2  3  1  0  0  0  0
  3  4  4  0  0  0  0
  4  5  4  0  0  0  0
  5  6  4  0  0  0  0
  6  7  4  0  0  0  0
  7  8  1  0  0  0  0
  7  9  4  0  0  0  0
  3  9  4  0  0  0  0
  9 10  1  0  0  0  0
 10 11  1  0  0  0  0
 11 12  2  0  0  0  0
 11 13  1  0  0  0  0
 13 14  4  0  0  0  0
 14 15  4  0  0  0  0
 15 16  1  0  0  0  0
 15 17  4  0  0  0  0
 17 18  1  0  0  0  0
 18 19  4  0  0  0  0
 19 20  4  0  0  0  0
 20 21  4  0  0  0  0
 21 22  4  0  0  0  0
 18 22  4  0  0  0  0
 22 23  2  0  0  0  0
 21 24  1  0  0  0  0
 24 25  1  0  0  0  0
 25 26  1  0  0  0  0
 26 27  1  0  0  0  0
 20 27  1  0  0  0  0
 17 28  4  0  0  0  0
 28 29  4  0  0  0  0
 13 29  4  0  0  0  0
 29 30  1  0  0  0  0
 30 31  1  0  0  0  0
 31 32  1  0  0  0  0
 31 33  1  0  0  0  0
 33 34  1  0  0  0  0
 33 35  1  0  0  0  0
 33 36  1  0  0  0  0
M  END
> <IC50(uM)>
0.025

> <Outcome>
1.0

> <BindingDB ID>
1020602

> <BindingDB MonomerID>
490541

> <BindingDB Ligand Name>
5-fluoro-N-(2-methoxy-6-methylphenyl)-4-(3-oxo-5,6-dihydro-3H-[1,2,4]triazolo[3,4-c]-[1,4]oxazin-2(8H)-yl)-2-{[(2S)-1,1,1-trifluoropropan-2-yl]oxy}benzamide::US10968216, Example 209

> <Curation/DataSource>
US Patent

> <Article DOI>
?

> <PMID>
?

> <Patent Number>
US10968216

> <Authors>
Gradl, SN; Nguyen, D; Eis, K; Gunther, J; Stellfeld, T; Janzer, A; Christian, S; Mueller, T; Sheikh, SE; Zhou, HJ; Zhao, C; Sykes, DB; Ferrara, SJ; Liu, K; Herbert, SA; Merz, C; Niehues, M; Nising, CF; Schafer, M; Zimmermann, K; Knablein, J; Thede, K; Faupel, T

> <Link to Ligand in BindingDB>
http://www.bindingdb.org/bind/chemsearch/marvin/MolStructure.jsp?monomerid=490541

> <Link to Ligand-Target Pair in BindingDB>
http://www.bindingdb.org/jsp/dbsearch/PrimarySearch_ki.jsp?energyterm=kJ/mole&tag=r21&monomerid=490541&enzyme=Dihydroorotate+dehydrogenase&column=ki&startPg=0&Increment=50&submit=Search

> <PubChem CID>
134474062

> <PubChem SID>
447117267

$$$$

  Mrv2115 07222212352D          

 33 35  0  0  0  0            999 V2000
    0.7145   -0.4125    0.0000 C   0  0  0  0  0  0  0  0  0  0  0  0
    0.7145   -1.2375    0.0000 C   0  0  0  0  0  0  0  0  0  0  0  0
    0.0470   -1.7224    0.0000 C   0  0  0  0  0  0  0  0  0  0  0  0
    0.3020   -2.5070    0.0000 N   0  0  0  0  0  0  0  0  0  0  0  0
   -0.1830   -3.1745    0.0000 C   0  0  0  0  0  0  0  0  0  0  0  0
    0.1526   -3.9282    0.0000 C   0  0  0  0  0  0  0  0  0  0  0  0
   -0.3323   -4.5956    0.0000 C   0  0  0  0  0  0  0  0  0  0  0  0
    0.0032   -5.3493    0.0000 O   0  0  0  0  0  0  0  0  0  0  0  0
    0.8237   -5.4355    0.0000 C   0  0  0  0  0  0  0  0  0  0  0  0
    1.3086   -4.7681    0.0000 C   0  0  0  0  0  0  0  0  0  0  0  0
    1.1593   -6.1892    0.0000 C   0  0  0  0  0  0  0  0  0  0  0  0
    0.4056   -6.5247    0.0000 F   0  0  0  0  0  0  0  0  0  0  0  0
    1.9130   -5.8536    0.0000 F   0  0  0  0  0  0  0  0  0  0  0  0
    1.4948   -6.9429    0.0000 F   0  0  0  0  0  0  0  0  0  0  0  0
   -1.1528   -4.5094    0.0000 C   0  0  0  0  0  0  0  0  0  0  0  0
   -1.6377   -5.1768    0.0000 C   0  0  0  0  0  0  0  0  0  0  0  0
   -1.3022   -5.9305    0.0000 O   0  0  0  0  0  0  0  0  0  0  0  0
   -2.4582   -5.0906    0.0000 N   0  0  0  0  0  0  0  0  0  0  0  0
   -2.9431   -5.7580    0.0000 C   0  0  0  0  0  0  0  0  0  0  0  0
   -2.6882   -6.5426    0.0000 C   0  0  0  0  0  0  0  0  0  0  0  0
   -1.9036   -6.7976    0.0000 C   0  0  0  0  0  0  0  0  0  0  0  0
   -3.3556   -7.0275    0.0000 N   0  0  0  0  0  0  0  0  0  0  0  0
   -4.0231   -6.5426    0.0000 N   0  0  0  0  0  0  0  0  0  0  0  0
   -3.7681   -5.7580    0.0000 C   0  0  0  0  0  0  0  0  0  0  0  0
   -4.2530   -5.0906    0.0000 Cl  0  0  0  0  0  0  0  0  0  0  0  0
   -1.4884   -3.7557    0.0000 C   0  0  0  0  0  0  0  0  0  0  0  0
   -1.0034   -3.0882    0.0000 C   0  0  0  0  0  0  0  0  0  0  0  0
   -1.3390   -2.3346    0.0000 F   0  0  0  0  0  0  0  0  0  0  0  0
    1.1270   -2.5070    0.0000 N   0  0  0  0  0  0  0  0  0  0  0  0
    1.3819   -1.7224    0.0000 C   0  0  0  0  0  0  0  0  0  0  0  0
    2.1665   -1.4675    0.0000 C   0  0  0  0  0  0  0  0  0  0  0  0
    2.3381   -0.6605    0.0000 C   0  0  0  0  0  0  0  0  0  0  0  0
    2.7796   -2.0195    0.0000 O   0  0  0  0  0  0  0  0  0  0  0  0
  1  2  1  0  0  0  0
  2  3  4  0  0  0  0
  3  4  4  0  0  0  0
  4  5  1  0  0  0  0
  5  6  4  0  0  0  0
  6  7  4  0  0  0  0
  7  8  1  0  0  0  0
  8  9  1  0  0  0  0
  9 10  1  0  0  0  0
  9 11  1  0  0  0  0
 11 12  1  0  0  0  0
 11 13  1  0  0  0  0
 11 14  1  0  0  0  0
  7 15  4  0  0  0  0
 15 16  1  0  0  0  0
 16 17  2  0  0  0  0
 16 18  1  0  0  0  0
 18 19  1  0  0  0  0
 19 20  4  0  0  0  0
 20 21  1  0  0  0  0
 20 22  4  0  0  0  0
 22 23  4  0  0  0  0
 23 24  4  0  0  0  0
 19 24  4  0  0  0  0
 24 25  1  0  0  0  0
 15 26  4  0  0  0  0
 26 27  4  0  0  0  0
  5 27  4  0  0  0  0
 27 28  1  0  0  0  0
  4 29  4  0  0  0  0
 29 30  4  0  0  0  0
  2 30  4  0  0  0  0
 30 31  1  0  0  0  0
 31 32  1  0  0  0  0
 31 33  1  0  0  0  0
M  STY  1   1 DAT
M  SAL   1  1  23
M  SDT   1 MRV_IMPLICIT_H                                        
M  SDD   1     0.5304   -0.4125    DR    ALL  0       0  
M  SED   1 IMPL_H1
M  END
> <IC50(uM)>
2.4000000000000003E-4

> <Outcome>
1.0

> <BindingDB ID>
1121395; 1121396

> <BindingDB MonomerID>
530461; 530462

> <BindingDB Ligand Name>
N-(5-Chloro-3-methyl-1H-pyrazol-4-yl)-5-fluoro-4-(3-((R*)-l-hydroxyethyl)-4-methyl-1H-pyrazol-1-yl)-2-(((S)-1,1,1-trifluoropropan-2-yl)oxy)benzamide::WO2022070069, Example 4; N-(5-Chloro-3-methyl-1H-pyrazol-4-yl)-5-fluoro-4-(3-((S*)-l-hydroxyethyl)-4-methyl-1H-pyrazol-1-yl)-2-(((M-1,1,1-trifluoropropan-2-yl)oxy)benzamide::WO2022070069, Example 5

> <Curation/DataSource>
Curated from the literature by BindingDB

> <Article DOI>
?

> <PMID>
WO2022070069

> <Patent Number>
?

> <Authors>
Lindsey, D; Scott, K

> <Link to Ligand in BindingDB>
http://www.bindingdb.org/bind/chemsearch/marvin/MolStructure.jsp?monomerid=530461; http://www.bindingdb.org/bind/chemsearch/marvin/MolStructure.jsp?monomerid=530462

> <Link to Ligand-Target Pair in BindingDB>
http://www.bindingdb.org/jsp/dbsearch/PrimarySearch_ki.jsp?energyterm=kJ/mole&tag=r21&monomerid=530461&enzyme=Dihydroorotate+dehydrogenase&column=ki&startPg=0&Increment=50&submit=Search; http://www.bindingdb.org/jsp/dbsearch/PrimarySearch_ki.jsp?energyterm=kJ/mole&tag=r21&monomerid=530462&enzyme=Dihydroorotate+dehydrogenase&column=ki&startPg=0&Increment=50&submit=Search

> <PubChem CID>
?

> <PubChem SID>
?

$$$$

  Mrv2115 07222212352D          

 37 41  0  0  0  0            999 V2000
   -5.5784   -3.5558    0.0000 C   0  0  0  0  0  0  0  0  0  0  0  0
   -5.1659   -2.8414    0.0000 O   0  0  0  0  0  0  0  0  0  0  0  0
   -5.5784   -2.1269    0.0000 C   0  0  0  0  0  0  0  0  0  0  0  0
   -6.4034   -2.1269    0.0000 C   0  0  0  0  0  0  0  0  0  0  0  0
   -6.8159   -1.4124    0.0000 N   0  0  0  0  0  0  0  0  0  0  0  0
   -6.4034   -0.6979    0.0000 C   0  0  0  0  0  0  0  0  0  0  0  0
   -5.5784   -0.6979    0.0000 N   0  0  0  0  0  0  0  0  0  0  0  0
   -5.1659   -1.4124    0.0000 C   0  0  0  0  0  0  0  0  0  0  0  0
   -4.3409   -1.4124    0.0000 N   0  0  0  0  0  0  0  0  0  0  0  0
   -3.9284   -0.6979    0.0000 C   0  0  0  0  0  0  0  0  0  0  0  0
   -4.3409    0.0165    0.0000 O   0  0  0  0  0  0  0  0  0  0  0  0
   -3.1034   -0.6979    0.0000 C   0  0  0  0  0  0  0  0  0  0  0  0
   -2.6909    0.0165    0.0000 C   0  0  0  0  0  0  0  0  0  0  0  0
   -1.8659    0.0165    0.0000 C   0  0  0  0  0  0  0  0  0  0  0  0
   -1.4534    0.7310    0.0000 F   0  0  0  0  0  0  0  0  0  0  0  0
   -1.4534   -0.6979    0.0000 C   0  0  0  0  0  0  0  0  0  0  0  0
   -0.6284   -0.6979    0.0000 N   0  0  0  0  0  0  0  0  0  0  0  0
   -0.1435   -1.3654    0.0000 N   0  0  0  0  0  0  0  0  0  0  0  0
    0.6411   -1.1104    0.0000 C   0  0  0  0  0  0  0  0  0  0  0  0
    0.6411   -0.2854    0.0000 N   0  0  0  0  0  0  0  0  0  0  0  0
   -0.1435   -0.0305    0.0000 C   0  0  0  0  0  0  0  0  0  0  0  0
   -0.3984    0.7541    0.0000 O   0  0  0  0  0  0  0  0  0  0  0  0
    1.3556    0.1271    0.0000 C   0  0  0  0  0  0  0  0  0  0  0  0
    2.0701   -0.2854    0.0000 C   0  0  0  0  0  0  0  0  0  0  0  0
    2.0701   -1.1104    0.0000 C   0  0  0  0  0  0  0  0  0  0  0  0
    1.3556   -1.5229    0.0000 C   0  0  0  0  0  0  0  0  0  0  0  0
   -1.8659   -1.4124    0.0000 C   0  0  0  0  0  0  0  0  0  0  0  0
   -2.6909   -1.4124    0.0000 C   0  0  0  0  0  0  0  0  0  0  0  0
   -3.1034   -2.1269    0.0000 O   0  0  0  0  0  0  0  0  0  0  0  0
   -2.6909   -2.8414    0.0000 C   0  0  0  0  0  0  0  0  0  0  0  0
   -1.8659   -2.8414    0.0000 C   0  0  0  0  0  0  0  0  0  0  0  0
   -3.1034   -3.5558    0.0000 C   0  0  0  0  0  0  0  0  0  0  0  0
   -2.6909   -4.2703    0.0000 C   0  0  0  0  0  0  0  0  0  0  0  0
   -3.1034   -4.9848    0.0000 C   0  0  0  0  0  0  0  0  0  0  0  0
   -3.9284   -4.9848    0.0000 C   0  0  0  0  0  0  0  0  0  0  0  0
   -4.3409   -4.2703    0.0000 C   0  0  0  0  0  0  0  0  0  0  0  0
   -3.9284   -3.5558    0.0000 C   0  0  0  0  0  0  0  0  0  0  0  0
  1  2  1  0  0  0  0
  2  3  1  0  0  0  0
  3  4  4  0  0  0  0
  4  5  4  0  0  0  0
  5  6  4  0  0  0  0
  6  7  4  0  0  0  0
  7  8  4  0  0  0  0
  3  8  4  0  0  0  0
  8  9  1  0  0  0  0
  9 10  1  0  0  0  0
 10 11  2  0  0  0  0
 10 12  1  0  0  0  0
 12 13  4  0  0  0  0
 13 14  4  0  0  0  0
 14 15  1  0  0  0  0
 14 16  4  0  0  0  0
 16 17  1  0  0  0  0
 17 18  4  0  0  0  0
 18 19  4  0  0  0  0
 19 20  4  0  0  0  0
 20 21  4  0  0  0  0
 17 21  4  0  0  0  0
 21 22  2  0  0  0  0
 20 23  1  0  0  0  0
 23 24  1  0  0  0  0
 24 25  1  0  0  0  0
 25 26  1  0  0  0  0
 19 26  1  0  0  0  0
 16 27  4  0  0  0  0
 27 28  4  0  0  0  0
 12 28  4  0  0  0  0
 28 29  1  0  0  0  0
 29 30  1  0  0  0  0
 30 31  1  0  0  0  0
 30 32  1  0  0  0  0
 32 33  1  0  0  0  0
 33 34  1  0  0  0  0
 34 35  1  0  0  0  0
 35 36  1  0  0  0  0
 36 37  1  0  0  0  0
 32 37  1  0  0  0  0
M  END
> <IC50(uM)>
0.8

> <Outcome>
1.0

> <BindingDB ID>
1020507

> <BindingDB MonomerID>
490455

> <BindingDB Ligand Name>
2-[(1S)-1-cyclohexylethoxy]-5-fluoro-N-(5-methoxypyrimidin-4-yl)-4-(3-oxo-5,6,7,8-tetrahydro[1,2,4]triazolo[4,3-a]pyridin-2(3H)-yl)benzamide::US10968216, Example 123

> <Curation/DataSource>
US Patent

> <Article DOI>
?

> <PMID>
?

> <Patent Number>
US10968216

> <Authors>
Gradl, SN; Nguyen, D; Eis, K; Gunther, J; Stellfeld, T; Janzer, A; Christian, S; Mueller, T; Sheikh, SE; Zhou, HJ; Zhao, C; Sykes, DB; Ferrara, SJ; Liu, K; Herbert, SA; Merz, C; Niehues, M; Nising, CF; Schafer, M; Zimmermann, K; Knablein, J; Thede, K; Faupel, T

> <Link to Ligand in BindingDB>
http://www.bindingdb.org/bind/chemsearch/marvin/MolStructure.jsp?monomerid=490455

> <Link to Ligand-Target Pair in BindingDB>
http://www.bindingdb.org/jsp/dbsearch/PrimarySearch_ki.jsp?energyterm=kJ/mole&tag=r21&monomerid=490455&enzyme=Dihydroorotate+dehydrogenase&column=ki&startPg=0&Increment=50&submit=Search

> <PubChem CID>
134473975

> <PubChem SID>
447117182

$$$$

  Mrv2115 07222212352D          

 26 29  0  0  0  0            999 V2000
    4.0668    2.3479    0.0000 C   0  0  0  0  0  0  0  0  0  0  0  0
    3.3523    1.9354    0.0000 C   0  0  0  0  0  0  0  0  0  0  0  0
    3.3523    1.1104    0.0000 C   0  0  0  0  0  0  0  0  0  0  0  0
    2.6378    0.6979    0.0000 C   0  0  0  0  0  0  0  0  0  0  0  0
    2.6378   -0.1271    0.0000 C   0  0  0  0  0  0  0  0  0  0  0  0
    1.9233   -0.5396    0.0000 O   0  0  0  0  0  0  0  0  0  0  0  0
    3.3523   -0.5396    0.0000 O   0  0  0  0  0  0  0  0  0  0  0  0
    1.9233    1.1104    0.0000 C   0  0  0  0  0  0  0  0  0  0  0  0
    1.1387    0.8555    0.0000 N   0  0  0  0  0  0  0  0  0  0  0  0
    0.6538    1.5229    0.0000 C   0  0  0  0  0  0  0  0  0  0  0  0
   -0.1712    1.5229    0.0000 C   0  0  0  0  0  0  0  0  0  0  0  0
   -0.5837    0.8085    0.0000 C   0  0  0  0  0  0  0  0  0  0  0  0
   -1.4087    0.8085    0.0000 C   0  0  0  0  0  0  0  0  0  0  0  0
   -1.8212    1.5229    0.0000 C   0  0  0  0  0  0  0  0  0  0  0  0
   -2.6462    1.5229    0.0000 O   0  0  0  0  0  0  0  0  0  0  0  0
   -3.0587    2.2374    0.0000 C   0  0  0  0  0  0  0  0  0  0  0  0
   -3.8837    2.2374    0.0000 C   0  0  0  0  0  0  0  0  0  0  0  0
   -4.2962    2.9519    0.0000 C   0  0  0  0  0  0  0  0  0  0  0  0
   -3.8837    3.6664    0.0000 C   0  0  0  0  0  0  0  0  0  0  0  0
   -3.0587    3.6664    0.0000 C   0  0  0  0  0  0  0  0  0  0  0  0
   -2.6462    2.9519    0.0000 C   0  0  0  0  0  0  0  0  0  0  0  0
   -1.4087    2.2374    0.0000 C   0  0  0  0  0  0  0  0  0  0  0  0
   -0.5837    2.2374    0.0000 C   0  0  0  0  0  0  0  0  0  0  0  0
    1.1387    2.1904    0.0000 N   0  0  0  0  0  0  0  0  0  0  0  0
    1.9233    1.9354    0.0000 C   0  0  0  0  0  0  0  0  0  0  0  0
    2.6378    2.3479    0.0000 C   0  0  0  0  0  0  0  0  0  0  0  0
  1  2  1  0  0  0  0
  2  3  4  0  0  0  0
  3  4  4  0  0  0  0
  4  5  1  0  0  0  0
  5  6  2  0  0  0  0
  5  7  1  0  0  0  0
  4  8  4  0  0  0  0
  8  9  4  0  0  0  0
  9 10  4  0  0  0  0
 10 11  1  0  0  0  0
 11 12  4  0  0  0  0
 12 13  4  0  0  0  0
 13 14  4  0  0  0  0
 14 15  1  0  0  0  0
 15 16  1  0  0  0  0
 16 17  4  0  0  0  0
 17 18  4  0  0  0  0
 18 19  4  0  0  0  0
 19 20  4  0  0  0  0
 20 21  4  0  0  0  0
 16 21  4  0  0  0  0
 14 22  4  0  0  0  0
 22 23  4  0  0  0  0
 11 23  4  0  0  0  0
 10 24  4  0  0  0  0
 24 25  4  0  0  0  0
  8 25  4  0  0  0  0
 25 26  4  0  0  0  0
  2 26  4  0  0  0  0
M  STY  1   1 DAT
M  SAL   1  1   9
M  SDT   1 MRV_IMPLICIT_H                                        
M  SDD   1     0.5304   -0.4125    DR    ALL  0       0  
M  SED   1 IMPL_H1
M  END
> <IC50(uM)>
3.41

> <Outcome>
0.0

> <BindingDB ID>
297779

> <BindingDB MonomerID>
155435

> <BindingDB Ligand Name>
US9006454, I67

> <Curation/DataSource>
US Patent

> <Article DOI>
?

> <PMID>
?

> <Patent Number>
US9006454

> <Authors>
Thunuguntla, SS; Subramanya, H; Kunnam, SR; Sanivaru Vijay, SR; Bingi, C; Kusanur, R; Schwarz, M; Arlt, M

> <Link to Ligand in BindingDB>
http://www.bindingdb.org/bind/chemsearch/marvin/MolStructure.jsp?monomerid=155435

> <Link to Ligand-Target Pair in BindingDB>
http://www.bindingdb.org/jsp/dbsearch/PrimarySearch_ki.jsp?energyterm=kJ/mole&tag=r21&monomerid=155435&enzyme=Dihydroorotate+dehydrogenase&column=ki&startPg=0&Increment=50&submit=Search

> <PubChem CID>
46947188

> <PubChem SID>
253658372

$$$$

  Mrv2115 07222212352D          

 36 39  0  0  0  0            999 V2000
   -2.3792   -3.6646    0.0000 C   0  0  0  0  0  0  0  0  0  0  0  0
   -2.9923   -4.2167    0.0000 C   0  0  0  0  0  0  0  0  0  0  0  0
   -3.7993   -4.0451    0.0000 N   0  0  0  0  0  0  0  0  0  0  0  0
   -4.2118   -4.7596    0.0000 N   0  0  0  0  0  0  0  0  0  0  0  0
   -5.0323   -4.8458    0.0000 C   0  0  0  0  0  0  0  0  0  0  0  0
   -5.3678   -5.5995    0.0000 C   0  0  0  0  0  0  0  0  0  0  0  0
   -6.1883   -5.6858    0.0000 C   0  0  0  0  0  0  0  0  0  0  0  0
   -6.5239   -6.4394    0.0000 O   0  0  0  0  0  0  0  0  0  0  0  0
   -6.0389   -7.1069    0.0000 C   0  0  0  0  0  0  0  0  0  0  0  0
   -5.2185   -7.0206    0.0000 C   0  0  0  0  0  0  0  0  0  0  0  0
   -6.3745   -7.8605    0.0000 C   0  0  0  0  0  0  0  0  0  0  0  0
   -7.1282   -7.5250    0.0000 F   0  0  0  0  0  0  0  0  0  0  0  0
   -5.6208   -8.1961    0.0000 F   0  0  0  0  0  0  0  0  0  0  0  0
   -6.7101   -8.6142    0.0000 F   0  0  0  0  0  0  0  0  0  0  0  0
   -6.6732   -5.0183    0.0000 C   0  0  0  0  0  0  0  0  0  0  0  0
   -7.4937   -5.1046    0.0000 C   0  0  0  0  0  0  0  0  0  0  0  0
   -7.8293   -5.8582    0.0000 O   0  0  0  0  0  0  0  0  0  0  0  0
   -7.9786   -4.4371    0.0000 N   0  0  0  0  0  0  0  0  0  0  0  0
   -8.7991   -4.5233    0.0000 C   0  0  0  0  0  0  0  0  0  0  0  0
   -9.1347   -5.2770    0.0000 C   0  0  0  0  0  0  0  0  0  0  0  0
   -8.6497   -5.9445    0.0000 F   0  0  0  0  0  0  0  0  0  0  0  0
   -9.9552   -5.3633    0.0000 C   0  0  0  0  0  0  0  0  0  0  0  0
  -10.4401   -4.6958    0.0000 C   0  0  0  0  0  0  0  0  0  0  0  0
  -10.1045   -3.9421    0.0000 C   0  0  0  0  0  0  0  0  0  0  0  0
   -9.2840   -3.8559    0.0000 C   0  0  0  0  0  0  0  0  0  0  0  0
   -8.9485   -3.1022    0.0000 F   0  0  0  0  0  0  0  0  0  0  0  0
   -6.3377   -4.2646    0.0000 C   0  0  0  0  0  0  0  0  0  0  0  0
   -5.5172   -4.1784    0.0000 C   0  0  0  0  0  0  0  0  0  0  0  0
   -5.1816   -3.4247    0.0000 F   0  0  0  0  0  0  0  0  0  0  0  0
   -3.6598   -5.3727    0.0000 C   0  0  0  0  0  0  0  0  0  0  0  0
   -3.8313   -6.1797    0.0000 O   0  0  0  0  0  0  0  0  0  0  0  0
   -2.9061   -5.0371    0.0000 N   0  0  0  0  0  0  0  0  0  0  0  0
   -2.1916   -5.4496    0.0000 C   0  0  0  0  0  0  0  0  0  0  0  0
   -2.1916   -6.2746    0.0000 C   0  0  0  0  0  0  0  0  0  0  0  0
   -1.7791   -6.9891    0.0000 C   0  0  0  0  0  0  0  0  0  0  0  0
   -2.6041   -6.9891    0.0000 C   0  0  0  0  0  0  0  0  0  0  0  0
  1  2  1  0  0  0  0
  2  3  4  0  0  0  0
  3  4  4  0  0  0  0
  4  5  1  0  0  0  0
  5  6  4  0  0  0  0
  6  7  4  0  0  0  0
  7  8  1  0  0  0  0
  8  9  1  0  0  0  0
  9 10  1  0  0  0  0
  9 11  1  0  0  0  0
 11 12  1  0  0  0  0
 11 13  1  0  0  0  0
 11 14  1  0  0  0  0
  7 15  4  0  0  0  0
 15 16  1  0  0  0  0
 16 17  2  0  0  0  0
 16 18  1  0  0  0  0
 18 19  1  0  0  0  0
 19 20  4  0  0  0  0
 20 21  1  0  0  0  0
 20 22  4  0  0  0  0
 22 23  4  0  0  0  0
 23 24  4  0  0  0  0
 24 25  4  0  0  0  0
 19 25  4  0  0  0  0
 25 26  1  0  0  0  0
 15 27  4  0  0  0  0
 27 28  4  0  0  0  0
  5 28  4  0  0  0  0
 28 29  1  0  0  0  0
  4 30  4  0  0  0  0
 30 31  2  0  0  0  0
 30 32  4  0  0  0  0
  2 32  4  0  0  0  0
 32 33  1  0  0  0  0
 33 34  1  0  0  0  0
 34 35  1  0  0  0  0
 35 36  1  0  0  0  0
 34 36  1  0  0  0  0
M  END
> <IC50(uM)>
0.15

> <Outcome>
1.0

> <BindingDB ID>
972562; 1098716

> <BindingDB MonomerID>
470436

> <BindingDB Ligand Name>
4-[4-(cyclopropylmethyl)-3-methyl-5-oxo-4,5-dihydro-1H-1,2,4-triazol-1-yl]-N-(2,6-difluoro-phenyl)-5-fluoro-2-{[(2S)-1,1,1-trifluoropropan-2-yl]oxy}benzamide::US10815215, Example 104; 4-[4-(cyclopropylmethyl)-3-methyl-5-oxo-4,5-dihydro-1H-1,2,4-triazol-1-yl]-N-(2,6-difluoro-phenyl)-5-fluoro-2-{[(2S)-1,1,1-trifluoropropan-2-yl]oxy}benzamide::US10815215, Example 104::US11130745, Example 104

> <Curation/DataSource>
US Patent

> <Article DOI>
?

> <PMID>
?

> <Patent Number>
US10815215; US11130745

> <Authors>
Gradl, SN; Nguyen, D; Eis, K; Gunther, J; Stellfeld, T; Janzer, A; Christian, S; Muller, T; Sheikh, SE; Zhou, HJ; Zhao, C; Sykes, DB; Ferrara, SJ; Liu, K; Krober, M; Merz, C; Niehues, M; Schafer, M; Zimmermann, K; Nising, CF; Gradl, SN; Nguyen, D; Eis, K; Gunther, J; Stellfeld, T; Janzer, A; Christian, S; Muller, T; Sheikh, SE; Sykes, DB; Ferrara, SJ; Krober, M; Merz, C; Niehues, M; Schafer, M; Zimmermann, K; Nising, CF

> <Link to Ligand in BindingDB>
http://www.bindingdb.org/bind/chemsearch/marvin/MolStructure.jsp?monomerid=470436

> <Link to Ligand-Target Pair in BindingDB>
http://www.bindingdb.org/jsp/dbsearch/PrimarySearch_ki.jsp?energyterm=kJ/mole&tag=r21&monomerid=470436&enzyme=Dihydroorotate+dehydrogenase&column=ki&startPg=0&Increment=50&submit=Search

> <PubChem CID>
134469867

> <PubChem SID>
441609613

$$$$

  Mrv2115 07222212352D          

 38 43  0  0  0  0            999 V2000
    0.4210    4.5375    0.0000 C   0  0  0  0  0  0  0  0  0  0  0  0
    0.4210    3.7125    0.0000 C   0  0  0  0  0  0  0  0  0  0  0  0
    1.1355    3.3000    0.0000 O   0  0  0  0  0  0  0  0  0  0  0  0
    1.8500    3.7125    0.0000 C   0  0  0  0  0  0  0  0  0  0  0  0
    1.8500    4.5375    0.0000 C   0  0  0  0  0  0  0  0  0  0  0  0
    2.5645    4.9500    0.0000 C   0  0  0  0  0  0  0  0  0  0  0  0
    2.5645    5.7750    0.0000 N   0  0  0  0  0  0  0  0  0  0  0  0
    3.2319    6.2599    0.0000 N   0  0  0  0  0  0  0  0  0  0  0  0
    2.9770    7.0445    0.0000 C   0  0  0  0  0  0  0  0  0  0  0  0
    2.1520    7.0445    0.0000 N   0  0  0  0  0  0  0  0  0  0  0  0
    1.8970    6.2599    0.0000 C   0  0  0  0  0  0  0  0  0  0  0  0
    1.1124    6.0050    0.0000 O   0  0  0  0  0  0  0  0  0  0  0  0
    1.7395    7.7590    0.0000 C   0  0  0  0  0  0  0  0  0  0  0  0
    2.1520    8.4735    0.0000 C   0  0  0  0  0  0  0  0  0  0  0  0
    2.9770    8.4735    0.0000 C   0  0  0  0  0  0  0  0  0  0  0  0
    3.3895    7.7590    0.0000 C   0  0  0  0  0  0  0  0  0  0  0  0
    3.2789    4.5375    0.0000 C   0  0  0  0  0  0  0  0  0  0  0  0
    3.9934    4.9500    0.0000 F   0  0  0  0  0  0  0  0  0  0  0  0
    3.2789    3.7125    0.0000 C   0  0  0  0  0  0  0  0  0  0  0  0
    2.5645    3.3000    0.0000 C   0  0  0  0  0  0  0  0  0  0  0  0
    2.5645    2.4750    0.0000 C   0  0  0  0  0  0  0  0  0  0  0  0
    1.8500    2.0625    0.0000 O   0  0  0  0  0  0  0  0  0  0  0  0
    3.2789    2.0625    0.0000 N   0  0  0  0  0  0  0  0  0  0  0  0
    3.2789    1.2375    0.0000 C   0  0  0  0  0  0  0  0  0  0  0  0
    3.9934    0.8250    0.0000 C   0  0  0  0  0  0  0  0  0  0  0  0
    3.9934    0.0000    0.0000 C   0  0  0  0  0  0  0  0  0  0  0  0
    3.2789   -0.4125    0.0000 C   0  0  0  0  0  0  0  0  0  0  0  0
    2.5645    0.0000    0.0000 C   0  0  0  0  0  0  0  0  0  0  0  0
    2.5645    0.8250    0.0000 C   0  0  0  0  0  0  0  0  0  0  0  0
    1.7798    1.0799    0.0000 C   0  0  0  0  0  0  0  0  0  0  0  0
    1.2949    0.4125    0.0000 N   0  0  0  0  0  0  0  0  0  0  0  0
    1.7798   -0.2549    0.0000 C   0  0  0  0  0  0  0  0  0  0  0  0
   -0.2934    3.3000    0.0000 C   0  0  0  0  0  0  0  0  0  0  0  0
   -0.2934    2.4750    0.0000 C   0  0  0  0  0  0  0  0  0  0  0  0
   -1.0079    2.0625    0.0000 C   0  0  0  0  0  0  0  0  0  0  0  0
   -1.7224    2.4750    0.0000 C   0  0  0  0  0  0  0  0  0  0  0  0
   -1.7224    3.3000    0.0000 C   0  0  0  0  0  0  0  0  0  0  0  0
   -1.0079    3.7125    0.0000 C   0  0  0  0  0  0  0  0  0  0  0  0
  1  2  1  0  0  0  0
  2  3  1  0  0  0  0
  3  4  1  0  0  0  0
  4  5  4  0  0  0  0
  5  6  4  0  0  0  0
  6  7  1  0  0  0  0
  7  8  4  0  0  0  0
  8  9  4  0  0  0  0
  9 10  4  0  0  0  0
 10 11  4  0  0  0  0
  7 11  4  0  0  0  0
 11 12  2  0  0  0  0
 10 13  1  0  0  0  0
 13 14  1  0  0  0  0
 14 15  1  0  0  0  0
 15 16  1  0  0  0  0
  9 16  1  0  0  0  0
  6 17  4  0  0  0  0
 17 18  1  0  0  0  0
 17 19  4  0  0  0  0
 19 20  4  0  0  0  0
  4 20  4  0  0  0  0
 20 21  1  0  0  0  0
 21 22  2  0  0  0  0
 21 23  1  0  0  0  0
 23 24  1  0  0  0  0
 24 25  4  0  0  0  0
 25 26  4  0  0  0  0
 26 27  4  0  0  0  0
 27 28  4  0  0  0  0
 28 29  4  0  0  0  0
 24 29  4  0  0  0  0
 29 30  1  0  0  0  0
 30 31  1  0  0  0  0
 31 32  1  0  0  0  0
 28 32  1  0  0  0  0
  2 33  1  0  0  0  0
 33 34  1  0  0  0  0
 34 35  1  0  0  0  0
 35 36  1  0  0  0  0
 36 37  1  0  0  0  0
 37 38  1  0  0  0  0
 33 38  1  0  0  0  0
M  END
> <IC50(uM)>
0.3095

> <Outcome>
1.0

> <BindingDB ID>
1020531; 1020532

> <BindingDB MonomerID>
490476

> <BindingDB Ligand Name>
2-[(1R)-1-cyclohexylethoxy]-N-(2,3-dihydro-1H-isoindol-4-yl)-5-fluoro-4-(3-oxo-5,6,7,8-tetrahydro[1,2,4]triazolo[4,3-a]pyridin-2(3H)-yl)benzamide::US10968216, Example 144

> <Curation/DataSource>
US Patent

> <Article DOI>
?

> <PMID>
?

> <Patent Number>
US10968216

> <Authors>
Gradl, SN; Nguyen, D; Eis, K; Gunther, J; Stellfeld, T; Janzer, A; Christian, S; Mueller, T; Sheikh, SE; Zhou, HJ; Zhao, C; Sykes, DB; Ferrara, SJ; Liu, K; Herbert, SA; Merz, C; Niehues, M; Nising, CF; Schafer, M; Zimmermann, K; Knablein, J; Thede, K; Faupel, T

> <Link to Ligand in BindingDB>
http://www.bindingdb.org/bind/chemsearch/marvin/MolStructure.jsp?monomerid=490476

> <Link to Ligand-Target Pair in BindingDB>
http://www.bindingdb.org/jsp/dbsearch/PrimarySearch_ki.jsp?energyterm=kJ/mole&tag=r21&monomerid=490476&enzyme=Dihydroorotate+dehydrogenase&column=ki&startPg=0&Increment=50&submit=Search

> <PubChem CID>
134474127

> <PubChem SID>
447117203

$$$$

  Mrv2115 07222212352D          

 20 22  0  0  0  0            999 V2000
   -0.5619   -5.1657    0.0000 C   0  0  0  0  0  0  0  0  0  0  0  0
   -0.8974   -4.4120    0.0000 C   0  0  0  0  0  0  0  0  0  0  0  0
   -1.7179   -4.3257    0.0000 O   0  0  0  0  0  0  0  0  0  0  0  0
   -0.4125   -3.7445    0.0000 C   0  0  0  0  0  0  0  0  0  0  0  0
   -0.6674   -2.9599    0.0000 S   0  0  0  0  0  0  0  0  0  0  0  0
    0.0000   -2.4750    0.0000 C   0  0  0  0  0  0  0  0  0  0  0  0
    0.0000   -1.6500    0.0000 N   0  0  0  0  0  0  0  0  0  0  0  0
    0.7145   -1.2375    0.0000 C   0  0  0  0  0  0  0  0  0  0  0  0
    0.7145   -0.4125    0.0000 C   0  0  0  0  0  0  0  0  0  0  0  0
    1.4289    0.0000    0.0000 C   0  0  0  0  0  0  0  0  0  0  0  0
    2.1434   -0.4125    0.0000 C   0  0  0  0  0  0  0  0  0  0  0  0
    2.8579    0.0000    0.0000 C   0  0  0  0  0  0  0  0  0  0  0  0
    3.5724   -0.4125    0.0000 C   0  0  0  0  0  0  0  0  0  0  0  0
    3.5724   -1.2375    0.0000 C   0  0  0  0  0  0  0  0  0  0  0  0
    2.8579   -1.6500    0.0000 C   0  0  0  0  0  0  0  0  0  0  0  0
    2.1434   -1.2375    0.0000 C   0  0  0  0  0  0  0  0  0  0  0  0
    1.4289   -1.6500    0.0000 C   0  0  0  0  0  0  0  0  0  0  0  0
    0.6674   -2.9599    0.0000 N   0  0  0  0  0  0  0  0  0  0  0  0
    0.4125   -3.7445    0.0000 C   0  0  0  0  0  0  0  0  0  0  0  0
    0.8974   -4.4120    0.0000 C   0  0  0  0  0  0  0  0  0  0  0  0
  1  2  1  0  0  0  0
  2  3  2  0  0  0  0
  2  4  1  0  0  0  0
  4  5  4  0  0  0  0
  5  6  4  0  0  0  0
  6  7  1  0  0  0  0
  7  8  1  0  0  0  0
  8  9  4  0  0  0  0
  9 10  4  0  0  0  0
 10 11  4  0  0  0  0
 11 12  4  0  0  0  0
 12 13  4  0  0  0  0
 13 14  4  0  0  0  0
 14 15  4  0  0  0  0
 15 16  4  0  0  0  0
 11 16  4  0  0  0  0
 16 17  4  0  0  0  0
  8 17  4  0  0  0  0
  6 18  4  0  0  0  0
 18 19  4  0  0  0  0
  4 19  4  0  0  0  0
 19 20  1  0  0  0  0
M  END
> <IC50(uM)>
0.562

> <Outcome>
1.0

> <BindingDB ID>
50312476

> <BindingDB MonomerID>
50071788

> <BindingDB Ligand Name>
CHEMBL3410576

> <Curation/DataSource>
ChEMBL

> <Article DOI>
10.1021/jm501127s

> <PMID>
25580811

> <Patent Number>
?

> <Authors>
Zhu, J; Han, L; Diao, Y; Ren, X; Xu, M; Xu, L; Li, S; Li, Q; Dong, D; Huang, J; Liu, X; Zhao, Z; Wang, R; Zhu, L; Xu, Y; Qian, X; Li, H

> <Link to Ligand in BindingDB>
http://www.bindingdb.org/bind/chemsearch/marvin/MolStructure.jsp?monomerid=50071788

> <Link to Ligand-Target Pair in BindingDB>
http://www.bindingdb.org/jsp/dbsearch/PrimarySearch_ki.jsp?energyterm=kJ/mole&tag=r21&monomerid=50071788&enzyme=Dihydroorotate+dehydrogenase&column=ki&startPg=0&Increment=50&submit=Search

> <PubChem CID>
118732495

> <PubChem SID>
103965498

$$$$

  Mrv2115 07222212352D          

 25 27  0  0  0  0            999 V2000
   -0.5837    0.0165    0.0000 C   0  0  0  0  0  0  0  0  0  0  0  0
   -0.1712   -0.6979    0.0000 C   0  0  0  0  0  0  0  0  0  0  0  0
    0.6538   -0.6979    0.0000 C   0  0  0  0  0  0  0  0  0  0  0  0
    1.1387   -0.0305    0.0000 N   0  0  0  0  0  0  0  0  0  0  0  0
    1.9233   -0.2854    0.0000 C   0  0  0  0  0  0  0  0  0  0  0  0
    2.6378    0.1271    0.0000 N   0  0  0  0  0  0  0  0  0  0  0  0
    3.3523   -0.2854    0.0000 C   0  0  0  0  0  0  0  0  0  0  0  0
    4.0668    0.1271    0.0000 C   0  0  0  0  0  0  0  0  0  0  0  0
    3.3523   -1.1104    0.0000 C   0  0  0  0  0  0  0  0  0  0  0  0
    2.6378   -1.5229    0.0000 C   0  0  0  0  0  0  0  0  0  0  0  0
    2.6378   -2.3479    0.0000 N   0  0  0  0  0  0  0  0  0  0  0  0
    1.9233   -2.7604    0.0000 C   0  0  0  0  0  0  0  0  0  0  0  0
    1.9233   -3.5854    0.0000 C   0  0  0  0  0  0  0  0  0  0  0  0
    1.2089   -3.9979    0.0000 C   0  0  0  0  0  0  0  0  0  0  0  0
    0.4944   -3.5854    0.0000 C   0  0  0  0  0  0  0  0  0  0  0  0
   -0.2201   -3.9979    0.0000 S   0  0  0  0  0  0  0  0  0  0  0  0
   -0.9345   -4.4104    0.0000 F   0  0  0  0  0  0  0  0  0  0  0  0
   -0.2201   -4.8229    0.0000 F   0  0  0  0  0  0  0  0  0  0  0  0
    0.4944   -4.4104    0.0000 F   0  0  0  0  0  0  0  0  0  0  0  0
   -0.2201   -3.1729    0.0000 F   0  0  0  0  0  0  0  0  0  0  0  0
   -0.9345   -3.5854    0.0000 F   0  0  0  0  0  0  0  0  0  0  0  0
    0.4944   -2.7604    0.0000 C   0  0  0  0  0  0  0  0  0  0  0  0
    1.2089   -2.3479    0.0000 C   0  0  0  0  0  0  0  0  0  0  0  0
    1.9233   -1.1104    0.0000 N   0  0  0  0  0  0  0  0  0  0  0  0
    1.1387   -1.3654    0.0000 N   0  0  0  0  0  0  0  0  0  0  0  0
  1  2  1  0  0  0  0
  2  3  1  0  0  0  0
  3  4  4  0  0  0  0
  4  5  4  0  0  0  0
  5  6  4  0  0  0  0
  6  7  4  0  0  0  0
  7  8  1  0  0  0  0
  7  9  4  0  0  0  0
  9 10  4  0  0  0  0
 10 11  1  0  0  0  0
 11 12  1  0  0  0  0
 12 13  4  0  0  0  0
 13 14  4  0  0  0  0
 14 15  4  0  0  0  0
 15 16  1  0  0  0  0
 16 17  1  0  0  0  0
 16 18  1  0  0  0  0
 16 19  1  0  0  0  0
 16 20  1  0  0  0  0
 16 21  1  0  0  0  0
 15 22  4  0  0  0  0
 22 23  4  0  0  0  0
 12 23  4  0  0  0  0
 10 24  4  0  0  0  0
  5 24  4  0  0  0  0
 24 25  4  0  0  0  0
  3 25  4  0  0  0  0
M  END
> <IC50(uM)>
100.0

> <Outcome>
0.0

> <BindingDB ID>
50720173

> <BindingDB MonomerID>
50365243

> <BindingDB Ligand Name>
CHEMBL1956265::US9238653, Table 5, Compound 50

> <Curation/DataSource>
ChEMBL

> <Article DOI>
10.1021/jm200592f

> <PMID>
21696174

> <Patent Number>
?

> <Authors>
Coteron, JM; Marco, M; Esquivias, J; Deng, X; White, KL; White, J; Koltun, M; El Mazouni, F; Kokkonda, S; Katneni, K; Bhamidipati, R; Shackleford, DM; Angulo-Barturen, I; Ferrer, SB; Jimenez-Diaz, MB; Gamo, FJ; Goldsmith, EJ; Charman, WN; Bathurst, I; Floyd, D; Matthews, D; Burrows, JN; Rathod, PK; Charman, SA; Phillips, MA

> <Link to Ligand in BindingDB>
http://www.bindingdb.org/bind/chemsearch/marvin/MolStructure.jsp?monomerid=50365243

> <Link to Ligand-Target Pair in BindingDB>
http://www.bindingdb.org/jsp/dbsearch/PrimarySearch_ki.jsp?energyterm=kJ/mole&tag=r21&monomerid=50365243&enzyme=Dihydroorotate+dehydrogenase&column=ki&startPg=0&Increment=50&submit=Search

> <PubChem CID>
51347397

> <PubChem SID>
136969305

$$$$

  Mrv2115 07222212352D          

 27 29  0  0  0  0            999 V2000
    2.8579   -0.0000    0.0000 C   0  0  0  0  0  0  0  0  0  0  0  0
    2.1434   -0.4125    0.0000 C   0  0  0  0  0  0  0  0  0  0  0  0
    1.4289   -0.0000    0.0000 C   0  0  0  0  0  0  0  0  0  0  0  0
    0.7145   -0.4125    0.0000 N   0  0  0  0  0  0  0  0  0  0  0  0
    0.0000    0.0000    0.0000 N   0  0  0  0  0  0  0  0  0  0  0  0
   -0.7145   -0.4125    0.0000 C   0  0  0  0  0  0  0  0  0  0  0  0
   -1.4289    0.0000    0.0000 C   0  0  0  0  0  0  0  0  0  0  0  0
   -2.1434   -0.4125    0.0000 C   0  0  0  0  0  0  0  0  0  0  0  0
   -2.8579    0.0000    0.0000 C   0  0  0  0  0  0  0  0  0  0  0  0
   -2.8579    0.8250    0.0000 C   0  0  0  0  0  0  0  0  0  0  0  0
   -2.1434    1.2375    0.0000 C   0  0  0  0  0  0  0  0  0  0  0  0
   -1.4289    0.8250    0.0000 C   0  0  0  0  0  0  0  0  0  0  0  0
   -0.7145    1.2375    0.0000 C   0  0  0  0  0  0  0  0  0  0  0  0
    0.0000    0.8250    0.0000 O   0  0  0  0  0  0  0  0  0  0  0  0
   -0.7145    2.0625    0.0000 O   0  0  0  0  0  0  0  0  0  0  0  0
    0.7145   -1.2375    0.0000 C   0  0  0  0  0  0  0  0  0  0  0  0
    1.3819   -1.7224    0.0000 N   0  0  0  0  0  0  0  0  0  0  0  0
    1.1270   -2.5070    0.0000 C   0  0  0  0  0  0  0  0  0  0  0  0
    1.6119   -3.1745    0.0000 C   0  0  0  0  0  0  0  0  0  0  0  0
    2.4324   -3.0882    0.0000 C   0  0  0  0  0  0  0  0  0  0  0  0
    2.9173   -3.7557    0.0000 C   0  0  0  0  0  0  0  0  0  0  0  0
    2.5817   -4.5094    0.0000 C   0  0  0  0  0  0  0  0  0  0  0  0
    1.7613   -4.5956    0.0000 C   0  0  0  0  0  0  0  0  0  0  0  0
    1.2763   -3.9282    0.0000 C   0  0  0  0  0  0  0  0  0  0  0  0
    0.4559   -4.0144    0.0000 Cl  0  0  0  0  0  0  0  0  0  0  0  0
    0.3020   -2.5070    0.0000 C   0  0  0  0  0  0  0  0  0  0  0  0
    0.0470   -1.7224    0.0000 S   0  0  0  0  0  0  0  0  0  0  0  0
  1  2  1  0  0  0  0
  2  3  1  0  0  0  0
  3  4  1  0  0  0  0
  4  5  1  0  0  0  0
  5  6  2  0  0  0  0
  6  7  1  0  0  0  0
  7  8  4  0  0  0  0
  8  9  4  0  0  0  0
  9 10  4  0  0  0  0
 10 11  4  0  0  0  0
 11 12  4  0  0  0  0
  7 12  4  0  0  0  0
 12 13  1  0  0  0  0
 13 14  2  0  0  0  0
 13 15  1  0  0  0  0
  4 16  1  0  0  0  0
 16 17  4  0  0  0  0
 17 18  4  0  0  0  0
 18 19  1  0  0  0  0
 19 20  4  0  0  0  0
 20 21  4  0  0  0  0
 21 22  4  0  0  0  0
 22 23  4  0  0  0  0
 23 24  4  0  0  0  0
 19 24  4  0  0  0  0
 24 25  1  0  0  0  0
 18 26  4  0  0  0  0
 26 27  4  0  0  0  0
 16 27  4  0  0  0  0
M  END
> <IC50(uM)>
0.0086

> <Outcome>
1.0

> <BindingDB ID>
1001112

> <BindingDB MonomerID>
482798

> <BindingDB Ligand Name>
US10919869, No.  3

> <Curation/DataSource>
US Patent

> <Article DOI>
?

> <PMID>
?

> <Patent Number>
US10919869

> <Authors>
Li, H; Xu, Y; Wang, R; Zhao, Z; Song, W; Xu, L

> <Link to Ligand in BindingDB>
http://www.bindingdb.org/bind/chemsearch/marvin/MolStructure.jsp?monomerid=482798

> <Link to Ligand-Target Pair in BindingDB>
http://www.bindingdb.org/jsp/dbsearch/PrimarySearch_ki.jsp?energyterm=kJ/mole&tag=r21&monomerid=482798&enzyme=Dihydroorotate+dehydrogenase&column=ki&startPg=0&Increment=50&submit=Search

> <PubChem CID>
132158000

> <PubChem SID>
443551939

$$$$

  Mrv2115 07222212352D          

 37 39  0  0  0  0            999 V2000
    0.0000   -4.1250    0.0000 C   0  0  0  0  0  0  0  0  0  0  0  0
    0.0000   -4.9500    0.0000 C   0  0  0  0  0  0  0  0  0  0  0  0
   -0.6674   -5.4349    0.0000 N   0  0  0  0  0  0  0  0  0  0  0  0
   -0.4125   -6.2195    0.0000 N   0  0  0  0  0  0  0  0  0  0  0  0
   -0.8974   -6.8870    0.0000 C   0  0  0  0  0  0  0  0  0  0  0  0
   -0.5619   -7.6407    0.0000 C   0  0  0  0  0  0  0  0  0  0  0  0
   -1.0468   -8.3081    0.0000 C   0  0  0  0  0  0  0  0  0  0  0  0
   -0.7112   -9.0618    0.0000 O   0  0  0  0  0  0  0  0  0  0  0  0
    0.1093   -9.1480    0.0000 C   0  0  0  0  0  0  0  0  0  0  0  0
    0.5942   -8.4806    0.0000 C   0  0  0  0  0  0  0  0  0  0  0  0
    0.4448   -9.9017    0.0000 C   0  0  0  0  0  0  0  0  0  0  0  0
   -0.3089  -10.2372    0.0000 F   0  0  0  0  0  0  0  0  0  0  0  0
    1.1985   -9.5661    0.0000 F   0  0  0  0  0  0  0  0  0  0  0  0
    0.7804  -10.6554    0.0000 F   0  0  0  0  0  0  0  0  0  0  0  0
   -1.8673   -8.2219    0.0000 C   0  0  0  0  0  0  0  0  0  0  0  0
   -2.3522   -8.8893    0.0000 C   0  0  0  0  0  0  0  0  0  0  0  0
   -2.0166   -9.6430    0.0000 O   0  0  0  0  0  0  0  0  0  0  0  0
   -3.1727   -8.8031    0.0000 N   0  0  0  0  0  0  0  0  0  0  0  0
   -3.6576   -9.4705    0.0000 C   0  0  0  0  0  0  0  0  0  0  0  0
   -3.3220  -10.2242    0.0000 C   0  0  0  0  0  0  0  0  0  0  0  0
   -3.8070  -10.8916    0.0000 C   0  0  0  0  0  0  0  0  0  0  0  0
   -4.6274  -10.8054    0.0000 C   0  0  0  0  0  0  0  0  0  0  0  0
   -4.9630  -10.0517    0.0000 C   0  0  0  0  0  0  0  0  0  0  0  0
   -5.7835   -9.9655    0.0000 C   0  0  0  0  0  0  0  0  0  0  0  0
   -6.6040   -9.8792    0.0000 F   0  0  0  0  0  0  0  0  0  0  0  0
   -5.8697  -10.7860    0.0000 F   0  0  0  0  0  0  0  0  0  0  0  0
   -5.6972   -9.1450    0.0000 F   0  0  0  0  0  0  0  0  0  0  0  0
   -4.4781   -9.3843    0.0000 C   0  0  0  0  0  0  0  0  0  0  0  0
   -2.2028   -7.4682    0.0000 C   0  0  0  0  0  0  0  0  0  0  0  0
   -1.7179   -6.8007    0.0000 C   0  0  0  0  0  0  0  0  0  0  0  0
   -2.0535   -6.0471    0.0000 F   0  0  0  0  0  0  0  0  0  0  0  0
    0.4125   -6.2195    0.0000 C   0  0  0  0  0  0  0  0  0  0  0  0
    0.8974   -6.8870    0.0000 O   0  0  0  0  0  0  0  0  0  0  0  0
    0.6674   -5.4349    0.0000 N   0  0  0  0  0  0  0  0  0  0  0  0
    1.4521   -5.1800    0.0000 C   0  0  0  0  0  0  0  0  0  0  0  0
    1.6236   -4.3730    0.0000 C   0  0  0  0  0  0  0  0  0  0  0  0
    2.0652   -5.7320    0.0000 C   0  0  0  0  0  0  0  0  0  0  0  0
  1  2  1  0  0  0  0
  2  3  4  0  0  0  0
  3  4  4  0  0  0  0
  4  5  1  0  0  0  0
  5  6  4  0  0  0  0
  6  7  4  0  0  0  0
  7  8  1  0  0  0  0
  8  9  1  0  0  0  0
  9 10  1  0  0  0  0
  9 11  1  0  0  0  0
 11 12  1  0  0  0  0
 11 13  1  0  0  0  0
 11 14  1  0  0  0  0
  7 15  4  0  0  0  0
 15 16  1  0  0  0  0
 16 17  2  0  0  0  0
 16 18  1  0  0  0  0
 18 19  1  0  0  0  0
 19 20  4  0  0  0  0
 20 21  4  0  0  0  0
 21 22  4  0  0  0  0
 22 23  4  0  0  0  0
 23 24  1  0  0  0  0
 24 25  1  0  0  0  0
 24 26  1  0  0  0  0
 24 27  1  0  0  0  0
 23 28  4  0  0  0  0
 19 28  4  0  0  0  0
 15 29  4  0  0  0  0
 29 30  4  0  0  0  0
  5 30  4  0  0  0  0
 30 31  1  0  0  0  0
  4 32  4  0  0  0  0
 32 33  2  0  0  0  0
 32 34  4  0  0  0  0
  2 34  4  0  0  0  0
 34 35  1  0  0  0  0
 35 36  1  0  0  0  0
 35 37  1  0  0  0  0
M  END
> <IC50(uM)>
1.685

> <Outcome>
0.0

> <BindingDB ID>
1098592; 972438; 1098591; 972437

> <BindingDB MonomerID>
470342

> <BindingDB Ligand Name>
5-fluoro-4-[3-methyl-5-oxo-4-(propan-2-yl)-4,5-dihydro-1H-1,2,4-triazol-1-yl]-N-[3-(trifluoromethyl)phenyl]-2-{[(2S)-1,1,1-trifluoropropan-2-yl]oxy}benzamide::US10815215, Example 4::US11130745, Example 4; 5-fluoro-4-[3-methyl-5-oxo-4-(propan-2-yl)-4,5-dihydro-1H-1,2,4-triazol-1-yl]-N-[3-(trifluoromethyl)phenyl]-2-{[(2S)-1,1,1-trifluoropropan-2-yl]oxy}benzamide::US10815215, Example 4

> <Curation/DataSource>
US Patent

> <Article DOI>
?

> <PMID>
?

> <Patent Number>
US11130745; US10815215

> <Authors>
Gradl, SN; Nguyen, D; Eis, K; Gunther, J; Stellfeld, T; Janzer, A; Christian, S; Muller, T; Sheikh, SE; Sykes, DB; Ferrara, SJ; Krober, M; Merz, C; Niehues, M; Schafer, M; Zimmermann, K; Nising, CF; Gradl, SN; Nguyen, D; Eis, K; Gunther, J; Stellfeld, T; Janzer, A; Christian, S; Muller, T; Sheikh, SE; Zhou, HJ; Zhao, C; Sykes, DB; Ferrara, SJ; Liu, K; Krober, M; Merz, C; Niehues, M; Schafer, M; Zimmermann, K; Nising, CF

> <Link to Ligand in BindingDB>
http://www.bindingdb.org/bind/chemsearch/marvin/MolStructure.jsp?monomerid=470342

> <Link to Ligand-Target Pair in BindingDB>
http://www.bindingdb.org/jsp/dbsearch/PrimarySearch_ki.jsp?energyterm=kJ/mole&tag=r21&monomerid=470342&enzyme=Dihydroorotate+dehydrogenase&column=ki&startPg=0&Increment=50&submit=Search

> <PubChem CID>
134469876

> <PubChem SID>
441609519

$$$$

  Mrv2115 07222212352D          

 21 23  0  0  0  0            999 V2000
    1.4289   -2.4750    0.0000 O   0  0  0  0  0  0  0  0  0  0  0  0
    1.4289   -1.6500    0.0000 C   0  0  0  0  0  0  0  0  0  0  0  0
    0.7145   -1.2375    0.0000 C   0  0  0  0  0  0  0  0  0  0  0  0
    0.0000   -1.6500    0.0000 O   0  0  0  0  0  0  0  0  0  0  0  0
    0.7145   -0.4125    0.0000 C   0  0  0  0  0  0  0  0  0  0  0  0
    0.0000    0.0000    0.0000 N   0  0  0  0  0  0  0  0  0  0  0  0
    0.0000    0.8250    0.0000 C   0  0  0  0  0  0  0  0  0  0  0  0
   -0.7145    1.2375    0.0000 C   0  0  0  0  0  0  0  0  0  0  0  0
   -0.7145    2.0625    0.0000 C   0  0  0  0  0  0  0  0  0  0  0  0
    0.0000    2.4750    0.0000 C   0  0  0  0  0  0  0  0  0  0  0  0
    0.0000    3.3000    0.0000 Cl  0  0  0  0  0  0  0  0  0  0  0  0
    0.7145    2.0625    0.0000 C   0  0  0  0  0  0  0  0  0  0  0  0
    0.7145    1.2375    0.0000 C   0  0  0  0  0  0  0  0  0  0  0  0
    1.4289    0.0000    0.0000 C   0  0  0  0  0  0  0  0  0  0  0  0
    1.4289    0.8250    0.0000 O   0  0  0  0  0  0  0  0  0  0  0  0
    2.1434   -0.4125    0.0000 C   0  0  0  0  0  0  0  0  0  0  0  0
    2.8579    0.0000    0.0000 C   0  0  0  0  0  0  0  0  0  0  0  0
    3.5724   -0.4125    0.0000 C   0  0  0  0  0  0  0  0  0  0  0  0
    3.5724   -1.2375    0.0000 C   0  0  0  0  0  0  0  0  0  0  0  0
    2.8579   -1.6500    0.0000 C   0  0  0  0  0  0  0  0  0  0  0  0
    2.1434   -1.2375    0.0000 C   0  0  0  0  0  0  0  0  0  0  0  0
  1  2  2  0  0  0  0
  2  3  1  0  0  0  0
  3  4  1  0  0  0  0
  3  5  2  0  0  0  0
  5  6  1  0  0  0  0
  6  7  1  0  0  0  0
  7  8  4  0  0  0  0
  8  9  4  0  0  0  0
  9 10  4  0  0  0  0
 10 11  1  0  0  0  0
 10 12  4  0  0  0  0
 12 13  4  0  0  0  0
  7 13  4  0  0  0  0
  5 14  1  0  0  0  0
 14 15  2  0  0  0  0
 14 16  1  0  0  0  0
 16 17  4  0  0  0  0
 17 18  4  0  0  0  0
 18 19  4  0  0  0  0
 19 20  4  0  0  0  0
 20 21  4  0  0  0  0
 16 21  4  0  0  0  0
  2 21  1  0  0  0  0
M  END
> <IC50(uM)>
0.541

> <Outcome>
1.0

> <BindingDB ID>
51282854

> <BindingDB MonomerID>
50523214

> <BindingDB Ligand Name>
CHEMBL4560384

> <Curation/DataSource>
ChEMBL

> <Article DOI>
10.1016/j.ejmech.2019.02.018

> <PMID>
30776695

> <Patent Number>
?

> <Authors>
Calil, FA; David, JS; Chiappetta, ERC; Fumagalli, F; Mello, RB; Leite, FHA; Castilho, MS; Emery, FS; Nonato, MC

> <Link to Ligand in BindingDB>
http://www.bindingdb.org/bind/chemsearch/marvin/MolStructure.jsp?monomerid=50523214

> <Link to Ligand-Target Pair in BindingDB>
http://www.bindingdb.org/jsp/dbsearch/PrimarySearch_ki.jsp?energyterm=kJ/mole&tag=r21&monomerid=50523214&enzyme=Dihydroorotate+dehydrogenase&column=ki&startPg=0&Increment=50&submit=Search

> <PubChem CID>
271388

> <PubChem SID>
440731796

$$$$

  Mrv2115 07222212352D          

 24 27  0  0  0  0            999 V2000
    2.1434   -2.8875    0.0000 O   0  0  0  0  0  0  0  0  0  0  0  0
    1.4289   -2.4750    0.0000 C   0  0  0  0  0  0  0  0  0  0  0  0
    0.7145   -2.8875    0.0000 O   0  0  0  0  0  0  0  0  0  0  0  0
    1.4289   -1.6500    0.0000 C   0  0  0  0  0  0  0  0  0  0  0  0
    0.7145   -1.2375    0.0000 C   0  0  0  0  0  0  0  0  0  0  0  0
    0.7145   -0.4125    0.0000 C   0  0  0  0  0  0  0  0  0  0  0  0
    0.0000    0.0000    0.0000 C   0  0  0  0  0  0  0  0  0  0  0  0
   -0.7145   -0.4125    0.0000 C   0  0  0  0  0  0  0  0  0  0  0  0
   -1.4289    0.0000    0.0000 C   0  0  0  0  0  0  0  0  0  0  0  0
   -1.4289    0.8250    0.0000 C   0  0  0  0  0  0  0  0  0  0  0  0
   -2.1434    1.2375    0.0000 N   0  0  0  0  0  0  0  0  0  0  0  0
   -2.8971    0.9019    0.0000 C   0  0  0  0  0  0  0  0  0  0  0  0
   -3.4491    1.5150    0.0000 C   0  0  0  0  0  0  0  0  0  0  0  0
   -3.0366    2.2295    0.0000 N   0  0  0  0  0  0  0  0  0  0  0  0
   -2.2296    2.0580    0.0000 C   0  0  0  0  0  0  0  0  0  0  0  0
   -0.7145    1.2375    0.0000 C   0  0  0  0  0  0  0  0  0  0  0  0
    0.0000    0.8250    0.0000 C   0  0  0  0  0  0  0  0  0  0  0  0
    1.4289    0.0000    0.0000 N   0  0  0  0  0  0  0  0  0  0  0  0
    2.1434   -0.4125    0.0000 C   0  0  0  0  0  0  0  0  0  0  0  0
    2.8579    0.0000    0.0000 C   0  0  0  0  0  0  0  0  0  0  0  0
    3.5724   -0.4125    0.0000 C   0  0  0  0  0  0  0  0  0  0  0  0
    3.5724   -1.2375    0.0000 C   0  0  0  0  0  0  0  0  0  0  0  0
    2.8579   -1.6500    0.0000 C   0  0  0  0  0  0  0  0  0  0  0  0
    2.1434   -1.2375    0.0000 C   0  0  0  0  0  0  0  0  0  0  0  0
  1  2  2  0  0  0  0
  2  3  1  0  0  0  0
  2  4  1  0  0  0  0
  4  5  4  0  0  0  0
  5  6  4  0  0  0  0
  6  7  1  0  0  0  0
  7  8  4  0  0  0  0
  8  9  4  0  0  0  0
  9 10  4  0  0  0  0
 10 11  1  0  0  0  0
 11 12  4  0  0  0  0
 12 13  4  0  0  0  0
 13 14  4  0  0  0  0
 14 15  4  0  0  0  0
 11 15  4  0  0  0  0
 10 16  4  0  0  0  0
 16 17  4  0  0  0  0
  7 17  4  0  0  0  0
  6 18  4  0  0  0  0
 18 19  4  0  0  0  0
 19 20  4  0  0  0  0
 20 21  4  0  0  0  0
 21 22  4  0  0  0  0
 22 23  4  0  0  0  0
 23 24  4  0  0  0  0
  4 24  4  0  0  0  0
 19 24  4  0  0  0  0
M  END
> <IC50(uM)>
8.4

> <Outcome>
0.0

> <BindingDB ID>
51126171

> <BindingDB MonomerID>
50461858

> <BindingDB Ligand Name>
CHEMBL4225229

> <Curation/DataSource>
ChEMBL

> <Article DOI>
10.1021/acs.jmedchem.7b01862

> <PMID>
29727569

> <Patent Number>
?

> <Authors>
Madak, JT; Cuthbertson, CR; Miyata, Y; Tamura, S; Petrunak, EM; Stuckey, JA; Han, Y; He, M; Sun, D; Showalter, HD; Neamati, N

> <Link to Ligand in BindingDB>
http://www.bindingdb.org/bind/chemsearch/marvin/MolStructure.jsp?monomerid=50461858

> <Link to Ligand-Target Pair in BindingDB>
http://www.bindingdb.org/jsp/dbsearch/PrimarySearch_ki.jsp?energyterm=kJ/mole&tag=r21&monomerid=50461858&enzyme=Dihydroorotate+dehydrogenase&column=ki&startPg=0&Increment=50&submit=Search

> <PubChem CID>
145967592

> <PubChem SID>
433929123

$$$$

  Mrv2115 07222212352D          

 37 41  0  0  0  0            999 V2000
   -3.8837   -2.8414    0.0000 C   0  0  0  0  0  0  0  0  0  0  0  0
   -4.2962   -2.1269    0.0000 C   0  0  0  0  0  0  0  0  0  0  0  0
   -5.1212   -2.1269    0.0000 C   0  0  0  0  0  0  0  0  0  0  0  0
   -5.5337   -1.4124    0.0000 C   0  0  0  0  0  0  0  0  0  0  0  0
   -5.1212   -0.6979    0.0000 C   0  0  0  0  0  0  0  0  0  0  0  0
   -4.2962   -0.6979    0.0000 C   0  0  0  0  0  0  0  0  0  0  0  0
   -3.8837    0.0165    0.0000 F   0  0  0  0  0  0  0  0  0  0  0  0
   -3.8837   -1.4124    0.0000 C   0  0  0  0  0  0  0  0  0  0  0  0
   -3.0587   -1.4124    0.0000 N   0  0  0  0  0  0  0  0  0  0  0  0
   -2.6462   -0.6979    0.0000 C   0  0  0  0  0  0  0  0  0  0  0  0
   -3.0587    0.0165    0.0000 O   0  0  0  0  0  0  0  0  0  0  0  0
   -1.8212   -0.6979    0.0000 C   0  0  0  0  0  0  0  0  0  0  0  0
   -1.4087    0.0165    0.0000 C   0  0  0  0  0  0  0  0  0  0  0  0
   -0.5837    0.0165    0.0000 C   0  0  0  0  0  0  0  0  0  0  0  0
   -0.1712    0.7310    0.0000 F   0  0  0  0  0  0  0  0  0  0  0  0
   -0.1712   -0.6979    0.0000 C   0  0  0  0  0  0  0  0  0  0  0  0
    0.6538   -0.6979    0.0000 N   0  0  0  0  0  0  0  0  0  0  0  0
    1.1387   -0.0305    0.0000 N   0  0  0  0  0  0  0  0  0  0  0  0
    1.9233   -0.2854    0.0000 C   0  0  0  0  0  0  0  0  0  0  0  0
    2.6378    0.1271    0.0000 C   0  0  0  0  0  0  0  0  0  0  0  0
    3.3523   -0.2854    0.0000 C   0  0  0  0  0  0  0  0  0  0  0  0
    3.3523   -1.1104    0.0000 C   0  0  0  0  0  0  0  0  0  0  0  0
    2.6378   -1.5229    0.0000 C   0  0  0  0  0  0  0  0  0  0  0  0
    1.9233   -1.1104    0.0000 N   0  0  0  0  0  0  0  0  0  0  0  0
    1.1387   -1.3654    0.0000 C   0  0  0  0  0  0  0  0  0  0  0  0
    0.8838   -2.1500    0.0000 O   0  0  0  0  0  0  0  0  0  0  0  0
   -0.5837   -1.4124    0.0000 C   0  0  0  0  0  0  0  0  0  0  0  0
   -1.4087   -1.4124    0.0000 C   0  0  0  0  0  0  0  0  0  0  0  0
   -1.8212   -2.1269    0.0000 O   0  0  0  0  0  0  0  0  0  0  0  0
   -1.4087   -2.8414    0.0000 C   0  0  0  0  0  0  0  0  0  0  0  0
   -0.5837   -2.8414    0.0000 C   0  0  0  0  0  0  0  0  0  0  0  0
   -1.8212   -3.5558    0.0000 C   0  0  0  0  0  0  0  0  0  0  0  0
   -1.4087   -4.2703    0.0000 C   0  0  0  0  0  0  0  0  0  0  0  0
   -1.8212   -4.9848    0.0000 C   0  0  0  0  0  0  0  0  0  0  0  0
   -2.6462   -4.9848    0.0000 C   0  0  0  0  0  0  0  0  0  0  0  0
   -3.0587   -4.2703    0.0000 C   0  0  0  0  0  0  0  0  0  0  0  0
   -2.6462   -3.5558    0.0000 C   0  0  0  0  0  0  0  0  0  0  0  0
  1  2  1  0  0  0  0
  2  3  4  0  0  0  0
  3  4  4  0  0  0  0
  4  5  4  0  0  0  0
  5  6  4  0  0  0  0
  6  7  1  0  0  0  0
  6  8  4  0  0  0  0
  2  8  4  0  0  0  0
  8  9  1  0  0  0  0
  9 10  1  0  0  0  0
 10 11  2  0  0  0  0
 10 12  1  0  0  0  0
 12 13  4  0  0  0  0
 13 14  4  0  0  0  0
 14 15  1  0  0  0  0
 14 16  4  0  0  0  0
 16 17  1  0  0  0  0
 17 18  4  0  0  0  0
 18 19  4  0  0  0  0
 19 20  4  0  0  0  0
 20 21  4  0  0  0  0
 21 22  4  0  0  0  0
 22 23  4  0  0  0  0
 23 24  4  0  0  0  0
 19 24  4  0  0  0  0
 24 25  4  0  0  0  0
 17 25  4  0  0  0  0
 25 26  2  0  0  0  0
 16 27  4  0  0  0  0
 27 28  4  0  0  0  0
 12 28  4  0  0  0  0
 28 29  1  0  0  0  0
 29 30  1  0  0  0  0
 30 31  1  0  0  0  0
 30 32  1  0  0  0  0
 32 33  4  0  0  0  0
 33 34  4  0  0  0  0
 34 35  4  0  0  0  0
 35 36  4  0  0  0  0
 36 37  4  0  0  0  0
 32 37  4  0  0  0  0
M  END
> <IC50(uM)>
0.2535

> <Outcome>
1.0

> <BindingDB ID>
1020620; 1020619

> <BindingDB MonomerID>
490553

> <BindingDB Ligand Name>
5-fluoro-N-(2-fluoro-6-methylphenyl)-4-(3-oxo[1,2,4]triazolo[4,3-a]pyridin-2(3H)-yl)-2-[(1S)-1-phenylethoxy]benzamide::US10968216, Example 221

> <Curation/DataSource>
US Patent

> <Article DOI>
?

> <PMID>
?

> <Patent Number>
US10968216

> <Authors>
Gradl, SN; Nguyen, D; Eis, K; Gunther, J; Stellfeld, T; Janzer, A; Christian, S; Mueller, T; Sheikh, SE; Zhou, HJ; Zhao, C; Sykes, DB; Ferrara, SJ; Liu, K; Herbert, SA; Merz, C; Niehues, M; Nising, CF; Schafer, M; Zimmermann, K; Knablein, J; Thede, K; Faupel, T

> <Link to Ligand in BindingDB>
http://www.bindingdb.org/bind/chemsearch/marvin/MolStructure.jsp?monomerid=490553

> <Link to Ligand-Target Pair in BindingDB>
http://www.bindingdb.org/jsp/dbsearch/PrimarySearch_ki.jsp?energyterm=kJ/mole&tag=r21&monomerid=490553&enzyme=Dihydroorotate+dehydrogenase&column=ki&startPg=0&Increment=50&submit=Search

> <PubChem CID>
134474271

> <PubChem SID>
447117279

$$$$

  Mrv2115 07222212352D          

 26 29  0  0  0  0            999 V2000
   -1.7575    0.3126    0.0000 C   0  0  0  0  0  0  0  0  0  0  0  0
   -1.2054    0.9256    0.0000 C   0  0  0  0  0  0  0  0  0  0  0  0
   -1.4604    1.7103    0.0000 C   0  0  0  0  0  0  0  0  0  0  0  0
   -0.9083    2.3234    0.0000 C   0  0  0  0  0  0  0  0  0  0  0  0
   -0.1014    2.1518    0.0000 C   0  0  0  0  0  0  0  0  0  0  0  0
    0.1536    1.3672    0.0000 C   0  0  0  0  0  0  0  0  0  0  0  0
   -0.3984    0.7541    0.0000 C   0  0  0  0  0  0  0  0  0  0  0  0
   -0.1435   -0.0305    0.0000 N   0  0  0  0  0  0  0  0  0  0  0  0
   -0.6284   -0.6979    0.0000 N   0  0  0  0  0  0  0  0  0  0  0  0
   -0.1435   -1.3654    0.0000 C   0  0  0  0  0  0  0  0  0  0  0  0
    0.6411   -1.1104    0.0000 C   0  0  0  0  0  0  0  0  0  0  0  0
    0.6411   -0.2854    0.0000 C   0  0  0  0  0  0  0  0  0  0  0  0
    1.3556    0.1271    0.0000 C   0  0  0  0  0  0  0  0  0  0  0  0
    2.0701   -0.2854    0.0000 C   0  0  0  0  0  0  0  0  0  0  0  0
    2.0701   -1.1104    0.0000 C   0  0  0  0  0  0  0  0  0  0  0  0
    1.3556   -1.5229    0.0000 C   0  0  0  0  0  0  0  0  0  0  0  0
    1.3556   -2.3479    0.0000 N   0  0  0  0  0  0  0  0  0  0  0  0
    2.0701   -2.7604    0.0000 C   0  0  0  0  0  0  0  0  0  0  0  0
    2.7845   -2.3479    0.0000 O   0  0  0  0  0  0  0  0  0  0  0  0
    2.0701   -3.5854    0.0000 C   0  0  0  0  0  0  0  0  0  0  0  0
    2.7845   -3.9979    0.0000 N   0  0  0  0  0  0  0  0  0  0  0  0
    2.7845   -4.8229    0.0000 C   0  0  0  0  0  0  0  0  0  0  0  0
    2.0701   -5.2354    0.0000 C   0  0  0  0  0  0  0  0  0  0  0  0
    1.3556   -4.8229    0.0000 C   0  0  0  0  0  0  0  0  0  0  0  0
    1.3556   -3.9979    0.0000 C   0  0  0  0  0  0  0  0  0  0  0  0
    0.6411   -3.5854    0.0000 C   0  0  0  0  0  0  0  0  0  0  0  0
  1  2  1  0  0  0  0
  2  3  4  0  0  0  0
  3  4  4  0  0  0  0
  4  5  4  0  0  0  0
  5  6  4  0  0  0  0
  6  7  4  0  0  0  0
  2  7  4  0  0  0  0
  7  8  1  0  0  0  0
  8  9  4  0  0  0  0
  9 10  4  0  0  0  0
 10 11  4  0  0  0  0
 11 12  4  0  0  0  0
  8 12  4  0  0  0  0
 12 13  1  0  0  0  0
 13 14  1  0  0  0  0
 14 15  1  0  0  0  0
 15 16  1  0  0  0  0
 11 16  1  0  0  0  0
 16 17  1  0  0  0  0
 17 18  1  0  0  0  0
 18 19  2  0  0  0  0
 18 20  1  0  0  0  0
 20 21  4  0  0  0  0
 21 22  4  0  0  0  0
 22 23  4  0  0  0  0
 23 24  4  0  0  0  0
 24 25  4  0  0  0  0
 20 25  4  0  0  0  0
 25 26  1  0  0  0  0
M  END
> <IC50(uM)>
0.096

> <Outcome>
1.0

> <BindingDB ID>
993094

> <BindingDB MonomerID>
477596

> <BindingDB Ligand Name>
3-methyl-N-[(4R)-1-(2-methylphenyl)-4,5,6,7-tetrahydro-1H-indazol-4-yl]pyridine-2-carboxamide::US10889564, Example 26

> <Curation/DataSource>
US Patent

> <Article DOI>
?

> <PMID>
?

> <Patent Number>
US10889564

> <Authors>
Lain, S; Drummond, C; Leeuwen, IV; Haraldsson, M; Johansson, L; Sandberg, L; Yngve, U

> <Link to Ligand in BindingDB>
http://www.bindingdb.org/bind/chemsearch/marvin/MolStructure.jsp?monomerid=477596

> <Link to Ligand-Target Pair in BindingDB>
http://www.bindingdb.org/jsp/dbsearch/PrimarySearch_ki.jsp?energyterm=kJ/mole&tag=r21&monomerid=477596&enzyme=Dihydroorotate+dehydrogenase&column=ki&startPg=0&Increment=50&submit=Search

> <PubChem CID>
129104733

> <PubChem SID>
442137213

$$$$

  Mrv2115 07222212352D          

 30 32  0  0  0  0            999 V2000
   -0.7145   -3.7125    0.0000 O   0  0  0  0  0  0  0  0  0  0  0  0
    0.0000   -4.1250    0.0000 C   0  0  0  0  0  0  0  0  0  0  0  0
    0.7145   -3.7125    0.0000 N   0  0  0  0  0  0  0  0  0  0  0  0
    0.7145   -2.8875    0.0000 C   0  0  0  0  0  0  0  0  0  0  0  0
    0.0000   -2.4750    0.0000 C   0  0  0  0  0  0  0  0  0  0  0  0
   -0.7145   -2.8875    0.0000 F   0  0  0  0  0  0  0  0  0  0  0  0
    0.0000   -1.6500    0.0000 C   0  0  0  0  0  0  0  0  0  0  0  0
    0.7145   -1.2375    0.0000 C   0  0  0  0  0  0  0  0  0  0  0  0
    0.7145   -0.4125    0.0000 C   0  0  0  0  0  0  0  0  0  0  0  0
    0.0000    0.0000    0.0000 C   0  0  0  0  0  0  0  0  0  0  0  0
    0.0000    0.8250    0.0000 C   0  0  0  0  0  0  0  0  0  0  0  0
    0.7145    1.2375    0.0000 C   0  0  0  0  0  0  0  0  0  0  0  0
    1.4289    0.8250    0.0000 C   0  0  0  0  0  0  0  0  0  0  0  0
    2.1434    1.2375    0.0000 O   0  0  0  0  0  0  0  0  0  0  0  0
    2.1434    2.0625    0.0000 C   0  0  0  0  0  0  0  0  0  0  0  0
    2.1434    2.8875    0.0000 F   0  0  0  0  0  0  0  0  0  0  0  0
    1.3184    2.0625    0.0000 F   0  0  0  0  0  0  0  0  0  0  0  0
    2.9684    2.0625    0.0000 F   0  0  0  0  0  0  0  0  0  0  0  0
    1.4289   -0.0000    0.0000 C   0  0  0  0  0  0  0  0  0  0  0  0
    1.4289   -1.6500    0.0000 C   0  0  0  0  0  0  0  0  0  0  0  0
    1.4289   -2.4750    0.0000 C   0  0  0  0  0  0  0  0  0  0  0  0
    2.1434   -2.8875    0.0000 F   0  0  0  0  0  0  0  0  0  0  0  0
    0.0000   -4.9500    0.0000 C   0  0  0  0  0  0  0  0  0  0  0  0
    0.6674   -5.4349    0.0000 C   0  0  0  0  0  0  0  0  0  0  0  0
    0.4125   -6.2195    0.0000 C   0  0  0  0  0  0  0  0  0  0  0  0
   -0.4125   -6.2195    0.0000 S   0  0  0  0  0  0  0  0  0  0  0  0
   -0.6674   -5.4349    0.0000 C   0  0  0  0  0  0  0  0  0  0  0  0
   -1.4521   -5.1800    0.0000 C   0  0  0  0  0  0  0  0  0  0  0  0
   -2.0652   -5.7320    0.0000 O   0  0  0  0  0  0  0  0  0  0  0  0
   -1.6236   -4.3730    0.0000 O   0  0  0  0  0  0  0  0  0  0  0  0
  1  2  2  0  0  0  0
  2  3  1  0  0  0  0
  3  4  1  0  0  0  0
  4  5  4  0  0  0  0
  5  6  1  0  0  0  0
  5  7  4  0  0  0  0
  7  8  4  0  0  0  0
  8  9  1  0  0  0  0
  9 10  4  0  0  0  0
 10 11  4  0  0  0  0
 11 12  4  0  0  0  0
 12 13  4  0  0  0  0
 13 14  1  0  0  0  0
 14 15  1  0  0  0  0
 15 16  1  0  0  0  0
 15 17  1  0  0  0  0
 15 18  1  0  0  0  0
 13 19  4  0  0  0  0
  9 19  4  0  0  0  0
  8 20  4  0  0  0  0
 20 21  4  0  0  0  0
  4 21  4  0  0  0  0
 21 22  1  0  0  0  0
  2 23  1  0  0  0  0
 23 24  4  0  0  0  0
 24 25  4  0  0  0  0
 25 26  4  0  0  0  0
 26 27  4  0  0  0  0
 23 27  4  0  0  0  0
 27 28  1  0  0  0  0
 28 29  2  0  0  0  0
 28 30  1  0  0  0  0
M  END
> <IC50(uM)>
0.002

> <Outcome>
1.0

> <BindingDB ID>
28080

> <BindingDB MonomerID>
15341

> <BindingDB Ligand Name>
3-({2,6-difluoro-4-[3-(trifluoromethoxy)phenyl]phenyl}carbamoyl)thiophene-2-carboxylic acid::Compound 7

> <Curation/DataSource>
Curated from the literature by BindingDB

> <Article DOI>
10.1021/jm0506975

> <PMID>
16480261

> <Patent Number>
?

> <Authors>
Baumgartner, R; Walloschek, M; Kralik, M; Gotschlich, A; Tasler, S; Mies, J; Leban, J

> <Link to Ligand in BindingDB>
http://www.bindingdb.org/bind/chemsearch/marvin/MolStructure.jsp?monomerid=15341

> <Link to Ligand-Target Pair in BindingDB>
http://www.bindingdb.org/jsp/dbsearch/PrimarySearch_ki.jsp?energyterm=kJ/mole&tag=r21&monomerid=15341&enzyme=Dihydroorotate+dehydrogenase&column=ki&startPg=0&Increment=50&submit=Search

> <PubChem CID>
15942658

> <PubChem SID>
46515645

$$$$

  Mrv2115 07222212352D          

 36 39  0  0  0  0            999 V2000
   -3.1034    2.1599    0.0000 C   0  0  0  0  0  0  0  0  0  0  0  0
   -2.6909    1.4455    0.0000 C   0  0  0  0  0  0  0  0  0  0  0  0
   -3.1034    0.7310    0.0000 O   0  0  0  0  0  0  0  0  0  0  0  0
   -2.6909    0.0165    0.0000 C   0  0  0  0  0  0  0  0  0  0  0  0
   -1.8659    0.0165    0.0000 C   0  0  0  0  0  0  0  0  0  0  0  0
   -1.4534   -0.6979    0.0000 C   0  0  0  0  0  0  0  0  0  0  0  0
   -0.6284   -0.6979    0.0000 N   0  0  0  0  0  0  0  0  0  0  0  0
   -0.1435   -1.3654    0.0000 N   0  0  0  0  0  0  0  0  0  0  0  0
    0.6411   -1.1104    0.0000 C   0  0  0  0  0  0  0  0  0  0  0  0
    0.6411   -0.2854    0.0000 N   0  0  0  0  0  0  0  0  0  0  0  0
   -0.1435   -0.0305    0.0000 C   0  0  0  0  0  0  0  0  0  0  0  0
   -0.3984    0.7541    0.0000 O   0  0  0  0  0  0  0  0  0  0  0  0
    1.3556    0.1271    0.0000 C   0  0  0  0  0  0  0  0  0  0  0  0
    2.0701   -0.2854    0.0000 C   0  0  0  0  0  0  0  0  0  0  0  0
    2.0701   -1.1104    0.0000 C   0  0  0  0  0  0  0  0  0  0  0  0
    1.3556   -1.5229    0.0000 C   0  0  0  0  0  0  0  0  0  0  0  0
   -1.8659   -1.4124    0.0000 C   0  0  0  0  0  0  0  0  0  0  0  0
   -1.4534   -2.1269    0.0000 F   0  0  0  0  0  0  0  0  0  0  0  0
   -2.6909   -1.4124    0.0000 C   0  0  0  0  0  0  0  0  0  0  0  0
   -3.1034   -0.6979    0.0000 C   0  0  0  0  0  0  0  0  0  0  0  0
   -3.9284   -0.6979    0.0000 C   0  0  0  0  0  0  0  0  0  0  0  0
   -4.3409    0.0165    0.0000 O   0  0  0  0  0  0  0  0  0  0  0  0
   -4.3409   -1.4124    0.0000 N   0  0  0  0  0  0  0  0  0  0  0  0
   -5.1659   -1.4124    0.0000 C   0  0  0  0  0  0  0  0  0  0  0  0
   -5.5784   -2.1269    0.0000 C   0  0  0  0  0  0  0  0  0  0  0  0
   -5.1659   -2.8414    0.0000 Cl  0  0  0  0  0  0  0  0  0  0  0  0
   -6.4034   -2.1269    0.0000 C   0  0  0  0  0  0  0  0  0  0  0  0
   -6.8159   -1.4124    0.0000 C   0  0  0  0  0  0  0  0  0  0  0  0
   -6.4034   -0.6979    0.0000 C   0  0  0  0  0  0  0  0  0  0  0  0
   -6.8159    0.0165    0.0000 F   0  0  0  0  0  0  0  0  0  0  0  0
   -5.5784   -0.6979    0.0000 C   0  0  0  0  0  0  0  0  0  0  0  0
   -5.1659    0.0165    0.0000 F   0  0  0  0  0  0  0  0  0  0  0  0
   -1.8659    1.4455    0.0000 C   0  0  0  0  0  0  0  0  0  0  0  0
   -1.8659    0.6205    0.0000 F   0  0  0  0  0  0  0  0  0  0  0  0
   -1.8659    2.2705    0.0000 F   0  0  0  0  0  0  0  0  0  0  0  0
   -1.0409    1.4455    0.0000 F   0  0  0  0  0  0  0  0  0  0  0  0
  1  2  1  0  0  0  0
  2  3  1  0  0  0  0
  3  4  1  0  0  0  0
  4  5  4  0  0  0  0
  5  6  4  0  0  0  0
  6  7  1  0  0  0  0
  7  8  4  0  0  0  0
  8  9  4  0  0  0  0
  9 10  4  0  0  0  0
 10 11  4  0  0  0  0
  7 11  4  0  0  0  0
 11 12  2  0  0  0  0
 10 13  1  0  0  0  0
 13 14  1  0  0  0  0
 14 15  1  0  0  0  0
 15 16  1  0  0  0  0
  9 16  1  0  0  0  0
  6 17  4  0  0  0  0
 17 18  1  0  0  0  0
 17 19  4  0  0  0  0
 19 20  4  0  0  0  0
  4 20  4  0  0  0  0
 20 21  1  0  0  0  0
 21 22  2  0  0  0  0
 21 23  1  0  0  0  0
 23 24  1  0  0  0  0
 24 25  4  0  0  0  0
 25 26  1  0  0  0  0
 25 27  4  0  0  0  0
 27 28  4  0  0  0  0
 28 29  4  0  0  0  0
 29 30  1  0  0  0  0
 29 31  4  0  0  0  0
 24 31  4  0  0  0  0
 31 32  1  0  0  0  0
  2 33  1  0  0  0  0
 33 34  1  0  0  0  0
 33 35  1  0  0  0  0
 33 36  1  0  0  0  0
M  END
> <IC50(uM)>
0.009

> <Outcome>
1.0

> <BindingDB ID>
1020449

> <BindingDB MonomerID>
490400

> <BindingDB Ligand Name>
N-(6-chloro-2,3-difluorophenyl)-5-fluoro-4-(3-oxo-5,6,7,8-tetrahydro[1,2,4]triazolo[4,3-a]pyridin-2(3H)-yl)-2-{[(2S)-1,1,1-trifluoropropan-2-yl]oxy}benzamide::US10968216, Example 68

> <Curation/DataSource>
US Patent

> <Article DOI>
?

> <PMID>
?

> <Patent Number>
US10968216

> <Authors>
Gradl, SN; Nguyen, D; Eis, K; Gunther, J; Stellfeld, T; Janzer, A; Christian, S; Mueller, T; Sheikh, SE; Zhou, HJ; Zhao, C; Sykes, DB; Ferrara, SJ; Liu, K; Herbert, SA; Merz, C; Niehues, M; Nising, CF; Schafer, M; Zimmermann, K; Knablein, J; Thede, K; Faupel, T

> <Link to Ligand in BindingDB>
http://www.bindingdb.org/bind/chemsearch/marvin/MolStructure.jsp?monomerid=490400

> <Link to Ligand-Target Pair in BindingDB>
http://www.bindingdb.org/jsp/dbsearch/PrimarySearch_ki.jsp?energyterm=kJ/mole&tag=r21&monomerid=490400&enzyme=Dihydroorotate+dehydrogenase&column=ki&startPg=0&Increment=50&submit=Search

> <PubChem CID>
134474110

> <PubChem SID>
447117127

$$$$

  Mrv2115 07222212352D          

 36 39  0  0  0  0            999 V2000
   -3.1034    2.1599    0.0000 C   0  0  0  0  0  0  0  0  0  0  0  0
   -2.6909    1.4455    0.0000 C   0  0  0  0  0  0  0  0  0  0  0  0
   -1.8659    1.4455    0.0000 C   0  0  0  0  0  0  0  0  0  0  0  0
   -1.4534    2.1599    0.0000 N   0  0  0  0  0  0  0  0  0  0  0  0
   -0.6284    2.1599    0.0000 C   0  0  0  0  0  0  0  0  0  0  0  0
   -1.8659    2.8744    0.0000 C   0  0  0  0  0  0  0  0  0  0  0  0
   -3.1034    0.7310    0.0000 O   0  0  0  0  0  0  0  0  0  0  0  0
   -2.6909    0.0165    0.0000 C   0  0  0  0  0  0  0  0  0  0  0  0
   -1.8659    0.0165    0.0000 C   0  0  0  0  0  0  0  0  0  0  0  0
   -1.4534   -0.6979    0.0000 C   0  0  0  0  0  0  0  0  0  0  0  0
   -0.6284   -0.6979    0.0000 N   0  0  0  0  0  0  0  0  0  0  0  0
   -0.1435   -1.3654    0.0000 N   0  0  0  0  0  0  0  0  0  0  0  0
    0.6411   -1.1104    0.0000 C   0  0  0  0  0  0  0  0  0  0  0  0
    0.6411   -0.2854    0.0000 N   0  0  0  0  0  0  0  0  0  0  0  0
   -0.1435   -0.0305    0.0000 C   0  0  0  0  0  0  0  0  0  0  0  0
   -0.3984    0.7541    0.0000 O   0  0  0  0  0  0  0  0  0  0  0  0
    1.3556    0.1271    0.0000 C   0  0  0  0  0  0  0  0  0  0  0  0
    2.0701   -0.2854    0.0000 C   0  0  0  0  0  0  0  0  0  0  0  0
    2.0701   -1.1104    0.0000 C   0  0  0  0  0  0  0  0  0  0  0  0
    1.3556   -1.5229    0.0000 C   0  0  0  0  0  0  0  0  0  0  0  0
   -1.8659   -1.4124    0.0000 C   0  0  0  0  0  0  0  0  0  0  0  0
   -1.4534   -2.1269    0.0000 F   0  0  0  0  0  0  0  0  0  0  0  0
   -2.6909   -1.4124    0.0000 C   0  0  0  0  0  0  0  0  0  0  0  0
   -3.1034   -0.6979    0.0000 C   0  0  0  0  0  0  0  0  0  0  0  0
   -3.9284   -0.6979    0.0000 C   0  0  0  0  0  0  0  0  0  0  0  0
   -4.3409    0.0165    0.0000 O   0  0  0  0  0  0  0  0  0  0  0  0
   -4.3409   -1.4124    0.0000 N   0  0  0  0  0  0  0  0  0  0  0  0
   -3.9284   -2.1269    0.0000 C   0  0  0  0  0  0  0  0  0  0  0  0
   -3.1034   -2.1269    0.0000 C   0  0  0  0  0  0  0  0  0  0  0  0
   -2.6909   -2.8414    0.0000 C   0  0  0  0  0  0  0  0  0  0  0  0
   -3.1034   -3.5558    0.0000 C   0  0  0  0  0  0  0  0  0  0  0  0
   -3.9284   -3.5558    0.0000 C   0  0  0  0  0  0  0  0  0  0  0  0
   -4.3409   -2.8414    0.0000 C   0  0  0  0  0  0  0  0  0  0  0  0
   -5.1659   -2.8414    0.0000 C   0  0  0  0  0  0  0  0  0  0  0  0
   -5.5784   -2.1269    0.0000 F   0  0  0  0  0  0  0  0  0  0  0  0
   -5.5784   -3.5558    0.0000 F   0  0  0  0  0  0  0  0  0  0  0  0
  1  2  1  0  0  0  0
  2  3  1  0  0  0  0
  3  4  1  0  0  0  0
  4  5  1  0  0  0  0
  4  6  1  0  0  0  0
  2  7  1  0  0  0  0
  7  8  1  0  0  0  0
  8  9  4  0  0  0  0
  9 10  4  0  0  0  0
 10 11  1  0  0  0  0
 11 12  4  0  0  0  0
 12 13  4  0  0  0  0
 13 14  4  0  0  0  0
 14 15  4  0  0  0  0
 11 15  4  0  0  0  0
 15 16  2  0  0  0  0
 14 17  1  0  0  0  0
 17 18  1  0  0  0  0
 18 19  1  0  0  0  0
 19 20  1  0  0  0  0
 13 20  1  0  0  0  0
 10 21  4  0  0  0  0
 21 22  1  0  0  0  0
 21 23  4  0  0  0  0
 23 24  4  0  0  0  0
  8 24  4  0  0  0  0
 24 25  1  0  0  0  0
 25 26  2  0  0  0  0
 25 27  1  0  0  0  0
 27 28  1  0  0  0  0
 28 29  4  0  0  0  0
 29 30  4  0  0  0  0
 30 31  4  0  0  0  0
 31 32  4  0  0  0  0
 32 33  4  0  0  0  0
 28 33  4  0  0  0  0
 33 34  1  0  0  0  0
 34 35  1  0  0  0  0
 34 36  1  0  0  0  0
M  END
> <IC50(uM)>
0.025

> <Outcome>
1.0

> <BindingDB ID>
1020674

> <BindingDB MonomerID>
490600

> <BindingDB Ligand Name>
N-[2-(difluoromethyl)phenyl]-2-{[(2S)-1-(dimethylamino)propan-2-yl]oxy}-5-fluoro-4-(3-oxo-5,6,7,8-tetrahydro[1,2,4]triazolo[4,3-a]pyridin-2(3H)-yl)benzamide::US10968216, Example 268

> <Curation/DataSource>
US Patent

> <Article DOI>
?

> <PMID>
?

> <Patent Number>
US10968216

> <Authors>
Gradl, SN; Nguyen, D; Eis, K; Gunther, J; Stellfeld, T; Janzer, A; Christian, S; Mueller, T; Sheikh, SE; Zhou, HJ; Zhao, C; Sykes, DB; Ferrara, SJ; Liu, K; Herbert, SA; Merz, C; Niehues, M; Nising, CF; Schafer, M; Zimmermann, K; Knablein, J; Thede, K; Faupel, T

> <Link to Ligand in BindingDB>
http://www.bindingdb.org/bind/chemsearch/marvin/MolStructure.jsp?monomerid=490600

> <Link to Ligand-Target Pair in BindingDB>
http://www.bindingdb.org/jsp/dbsearch/PrimarySearch_ki.jsp?energyterm=kJ/mole&tag=r21&monomerid=490600&enzyme=Dihydroorotate+dehydrogenase&column=ki&startPg=0&Increment=50&submit=Search

> <PubChem CID>
134473890

> <PubChem SID>
447117326

$$$$

  Mrv2115 07222212352D          

 35 38  0  0  0  0            999 V2000
   -2.9218    9.3667    0.0000 C   0  0  0  0  0  0  0  0  0  0  0  0
   -2.5862   10.1204    0.0000 C   0  0  0  0  0  0  0  0  0  0  0  0
   -3.0711   10.7879    0.0000 C   0  0  0  0  0  0  0  0  0  0  0  0
   -2.7356   11.5415    0.0000 C   0  0  0  0  0  0  0  0  0  0  0  0
   -1.9151   11.6278    0.0000 C   0  0  0  0  0  0  0  0  0  0  0  0
   -1.4302   10.9603    0.0000 C   0  0  0  0  0  0  0  0  0  0  0  0
   -0.6097   11.0466    0.0000 F   0  0  0  0  0  0  0  0  0  0  0  0
   -1.7657   10.2066    0.0000 C   0  0  0  0  0  0  0  0  0  0  0  0
   -1.2808    9.5392    0.0000 N   0  0  0  0  0  0  0  0  0  0  0  0
   -0.4603    9.6254    0.0000 C   0  0  0  0  0  0  0  0  0  0  0  0
   -0.1248   10.3791    0.0000 O   0  0  0  0  0  0  0  0  0  0  0  0
    0.0246    8.9580    0.0000 C   0  0  0  0  0  0  0  0  0  0  0  0
    0.8451    9.0442    0.0000 C   0  0  0  0  0  0  0  0  0  0  0  0
    1.3300    8.3768    0.0000 C   0  0  0  0  0  0  0  0  0  0  0  0
    2.1505    8.4630    0.0000 F   0  0  0  0  0  0  0  0  0  0  0  0
    0.9944    7.6231    0.0000 C   0  0  0  0  0  0  0  0  0  0  0  0
    1.4794    6.9557    0.0000 N   0  0  0  0  0  0  0  0  0  0  0  0
    1.2244    6.1711    0.0000 N   0  0  0  0  0  0  0  0  0  0  0  0
    1.8919    5.6861    0.0000 C   0  0  0  0  0  0  0  0  0  0  0  0
    1.8919    4.8611    0.0000 C   0  0  0  0  0  0  0  0  0  0  0  0
    2.3044    4.1467    0.0000 C   0  0  0  0  0  0  0  0  0  0  0  0
    1.4794    4.1467    0.0000 C   0  0  0  0  0  0  0  0  0  0  0  0
    2.5593    6.1711    0.0000 N   0  0  0  0  0  0  0  0  0  0  0  0
    3.3439    5.9161    0.0000 C   0  0  0  0  0  0  0  0  0  0  0  0
    2.3044    6.9557    0.0000 C   0  0  0  0  0  0  0  0  0  0  0  0
    2.7893    7.6231    0.0000 O   0  0  0  0  0  0  0  0  0  0  0  0
    0.1740    7.5369    0.0000 C   0  0  0  0  0  0  0  0  0  0  0  0
   -0.3110    8.2043    0.0000 C   0  0  0  0  0  0  0  0  0  0  0  0
   -1.1314    8.1181    0.0000 O   0  0  0  0  0  0  0  0  0  0  0  0
   -1.4670    7.3644    0.0000 C   0  0  0  0  0  0  0  0  0  0  0  0
   -0.9821    6.6970    0.0000 C   0  0  0  0  0  0  0  0  0  0  0  0
   -2.2875    7.2782    0.0000 C   0  0  0  0  0  0  0  0  0  0  0  0
   -2.3737    8.0987    0.0000 F   0  0  0  0  0  0  0  0  0  0  0  0
   -2.2012    6.4577    0.0000 F   0  0  0  0  0  0  0  0  0  0  0  0
   -3.1080    7.1919    0.0000 F   0  0  0  0  0  0  0  0  0  0  0  0
  1  2  1  0  0  0  0
  2  3  4  0  0  0  0
  3  4  4  0  0  0  0
  4  5  4  0  0  0  0
  5  6  4  0  0  0  0
  6  7  1  0  0  0  0
  6  8  4  0  0  0  0
  2  8  4  0  0  0  0
  8  9  1  0  0  0  0
  9 10  1  0  0  0  0
 10 11  2  0  0  0  0
 10 12  1  0  0  0  0
 12 13  4  0  0  0  0
 13 14  4  0  0  0  0
 14 15  1  0  0  0  0
 14 16  4  0  0  0  0
 16 17  1  0  0  0  0
 17 18  4  0  0  0  0
 18 19  4  0  0  0  0
 19 20  1  0  0  0  0
 20 21  1  0  0  0  0
 21 22  1  0  0  0  0
 20 22  1  0  0  0  0
 19 23  4  0  0  0  0
 23 24  1  0  0  0  0
 23 25  4  0  0  0  0
 17 25  4  0  0  0  0
 25 26  2  0  0  0  0
 16 27  4  0  0  0  0
 27 28  4  0  0  0  0
 12 28  4  0  0  0  0
 28 29  1  0  0  0  0
 29 30  1  0  0  0  0
 30 31  1  0  0  0  0
 30 32  1  0  0  0  0
 32 33  1  0  0  0  0
 32 34  1  0  0  0  0
 32 35  1  0  0  0  0
M  END
> <IC50(uM)>
0.0075

> <Outcome>
1.0

> <BindingDB ID>
972514; 1098668

> <BindingDB MonomerID>
470389

> <BindingDB Ligand Name>
4-(3-cyclopropyl-4-methyl-5-oxo-4,5-dihydro-1H-1,2,4-triazol-1-yl)-5-fluoro-N-(2-fluoro-6-methylphenyl)-2-{[(2S)-1,1,1-trifluoropropan-2-yl]oxy}benzamide::US10815215, Example 48; 4-(3-cyclopropyl-4-methyl-5-oxo-4,5-dihydro-1H-1,2,4-triazol-1-yl)-5-fluoro-N-(2-fluoro-6-methylphenyl)-2-{[(2S)-1,1,1-trifluoropropan-2-yl]oxy}benzamide::US10815215, Example 48::US11130745, Example 48

> <Curation/DataSource>
US Patent

> <Article DOI>
?

> <PMID>
?

> <Patent Number>
US10815215; US11130745

> <Authors>
Gradl, SN; Nguyen, D; Eis, K; Gunther, J; Stellfeld, T; Janzer, A; Christian, S; Muller, T; Sheikh, SE; Zhou, HJ; Zhao, C; Sykes, DB; Ferrara, SJ; Liu, K; Krober, M; Merz, C; Niehues, M; Schafer, M; Zimmermann, K; Nising, CF; Gradl, SN; Nguyen, D; Eis, K; Gunther, J; Stellfeld, T; Janzer, A; Christian, S; Muller, T; Sheikh, SE; Sykes, DB; Ferrara, SJ; Krober, M; Merz, C; Niehues, M; Schafer, M; Zimmermann, K; Nising, CF

> <Link to Ligand in BindingDB>
http://www.bindingdb.org/bind/chemsearch/marvin/MolStructure.jsp?monomerid=470389

> <Link to Ligand-Target Pair in BindingDB>
http://www.bindingdb.org/jsp/dbsearch/PrimarySearch_ki.jsp?energyterm=kJ/mole&tag=r21&monomerid=470389&enzyme=Dihydroorotate+dehydrogenase&column=ki&startPg=0&Increment=50&submit=Search

> <PubChem CID>
134470274

> <PubChem SID>
441609566

$$$$

  Mrv2115 07222212352D          

 22 23  0  0  0  0            999 V2000
    0.8212    1.1759    0.0000 C   0  0  0  0  0  0  0  0  0  0  0  0
    0.1067    0.7634    0.0000 C   0  0  0  0  0  0  0  0  0  0  0  0
    0.1067   -0.0616    0.0000 O   0  0  0  0  0  0  0  0  0  0  0  0
   -0.6078   -0.4741    0.0000 C   0  0  0  0  0  0  0  0  0  0  0  0
   -1.3222   -0.0616    0.0000 O   0  0  0  0  0  0  0  0  0  0  0  0
   -0.6078   -1.2991    0.0000 C   0  0  0  0  0  0  0  0  0  0  0  0
    0.0597   -1.7840    0.0000 N   0  0  0  0  0  0  0  0  0  0  0  0
   -0.1953   -2.5687    0.0000 C   0  0  0  0  0  0  0  0  0  0  0  0
    0.2897   -3.2361    0.0000 C   0  0  0  0  0  0  0  0  0  0  0  0
   -1.0203   -2.5687    0.0000 C   0  0  0  0  0  0  0  0  0  0  0  0
   -1.5052   -3.2361    0.0000 C   0  0  0  0  0  0  0  0  0  0  0  0
   -1.1696   -3.9898    0.0000 C   0  0  0  0  0  0  0  0  0  0  0  0
   -0.3491   -4.0760    0.0000 C   0  0  0  0  0  0  0  0  0  0  0  0
   -0.0136   -4.8297    0.0000 C   0  0  0  0  0  0  0  0  0  0  0  0
   -0.4985   -5.4971    0.0000 C   0  0  0  0  0  0  0  0  0  0  0  0
   -1.3190   -5.4109    0.0000 C   0  0  0  0  0  0  0  0  0  0  0  0
   -1.8039   -6.0783    0.0000 O   0  0  0  0  0  0  0  0  0  0  0  0
   -2.6244   -5.9921    0.0000 C   0  0  0  0  0  0  0  0  0  0  0  0
   -3.1093   -6.6595    0.0000 C   0  0  0  0  0  0  0  0  0  0  0  0
   -1.6546   -4.6572    0.0000 C   0  0  0  0  0  0  0  0  0  0  0  0
   -1.2752   -1.7840    0.0000 C   0  0  0  0  0  0  0  0  0  0  0  0
   -2.0598   -1.5291    0.0000 C   0  0  0  0  0  0  0  0  0  0  0  0
  1  2  1  0  0  0  0
  2  3  1  0  0  0  0
  3  4  1  0  0  0  0
  4  5  2  0  0  0  0
  4  6  1  0  0  0  0
  6  7  4  0  0  0  0
  7  8  4  0  0  0  0
  8  9  1  0  0  0  0
  8 10  4  0  0  0  0
 10 11  1  0  0  0  0
 11 12  1  0  0  0  0
 12 13  4  0  0  0  0
 13 14  4  0  0  0  0
 14 15  4  0  0  0  0
 15 16  4  0  0  0  0
 16 17  1  0  0  0  0
 17 18  1  0  0  0  0
 18 19  1  0  0  0  0
 16 20  4  0  0  0  0
 12 20  4  0  0  0  0
 10 21  4  0  0  0  0
  6 21  4  0  0  0  0
 21 22  1  0  0  0  0
M  STY  1   1 DAT
M  SAL   1  1   7
M  SDT   1 MRV_IMPLICIT_H                                        
M  SDD   1     0.5304   -0.4125    DR    ALL  0       0  
M  SED   1 IMPL_H1
M  END
> <IC50(uM)>
100.0

> <Outcome>
0.0

> <BindingDB ID>
51330079

> <BindingDB MonomerID>
50538327

> <BindingDB Ligand Name>
CHEMBL4646919

> <Curation/DataSource>
ChEMBL

> <Article DOI>
10.1021/acs.jmedchem.0c00311

> <PMID>
32248693

> <Patent Number>
?

> <Authors>
Kokkonda, S; Deng, X; White, KL; El Mazouni, F; White, J; Shackleford, DM; Katneni, K; Chiu, FCK; Barker, H; McLaren, J; Crighton, E; Chen, G; Angulo-Barturen, I; Jimenez-Diaz, MB; Ferrer, S; Huertas-Valentin, L; Martinez-Martinez, MS; Lafuente-Monasterio, MJ; Chittimalla, R; Shahi, SP; Wittlin, S; Waterson, D; Burrows, JN; Matthews, D; Tomchick, D; Rathod, PK; Palmer, MJ; Charman, SA; Phillips, MA

> <Link to Ligand in BindingDB>
http://www.bindingdb.org/bind/chemsearch/marvin/MolStructure.jsp?monomerid=50538327

> <Link to Ligand-Target Pair in BindingDB>
http://www.bindingdb.org/jsp/dbsearch/PrimarySearch_ki.jsp?energyterm=kJ/mole&tag=r21&monomerid=50538327&enzyme=Dihydroorotate+dehydrogenase&column=ki&startPg=0&Increment=50&submit=Search

> <PubChem CID>
156021835

> <PubChem SID>
442139890

$$$$

  Mrv2115 07222212352D          

 27 30  0  0  0  0            999 V2000
   -4.2868    0.8250    0.0000 C   0  0  0  0  0  0  0  0  0  0  0  0
   -3.5724    1.2375    0.0000 C   0  0  0  0  0  0  0  0  0  0  0  0
   -3.5724    2.0625    0.0000 N   0  0  0  0  0  0  0  0  0  0  0  0
   -2.8579    2.4750    0.0000 C   0  0  0  0  0  0  0  0  0  0  0  0
   -2.1434    2.0625    0.0000 C   0  0  0  0  0  0  0  0  0  0  0  0
   -2.1434    1.2375    0.0000 C   0  0  0  0  0  0  0  0  0  0  0  0
   -1.4289    0.8250    0.0000 C   0  0  0  0  0  0  0  0  0  0  0  0
   -0.7145    1.2375    0.0000 C   0  0  0  0  0  0  0  0  0  0  0  0
    0.0000    0.8250    0.0000 C   0  0  0  0  0  0  0  0  0  0  0  0
    0.0000   -0.0000    0.0000 C   0  0  0  0  0  0  0  0  0  0  0  0
    0.7145   -0.4125    0.0000 C   0  0  0  0  0  0  0  0  0  0  0  0
    1.4289    0.0000    0.0000 N   0  0  0  0  0  0  0  0  0  0  0  0
    2.1434   -0.4125    0.0000 C   0  0  0  0  0  0  0  0  0  0  0  0
    2.8579    0.0000    0.0000 C   0  0  0  0  0  0  0  0  0  0  0  0
    3.5724   -0.4125    0.0000 C   0  0  0  0  0  0  0  0  0  0  0  0
    3.5724   -1.2375    0.0000 N   0  0  0  0  0  0  0  0  0  0  0  0
    2.8579   -1.6500    0.0000 C   0  0  0  0  0  0  0  0  0  0  0  0
    2.1434   -1.2375    0.0000 C   0  0  0  0  0  0  0  0  0  0  0  0
    1.4289   -1.6500    0.0000 C   0  0  0  0  0  0  0  0  0  0  0  0
    1.4289   -2.4750    0.0000 O   0  0  0  0  0  0  0  0  0  0  0  0
    0.7145   -1.2375    0.0000 C   0  0  0  0  0  0  0  0  0  0  0  0
    0.0000   -1.6500    0.0000 C   0  0  0  0  0  0  0  0  0  0  0  0
   -0.7145   -2.0625    0.0000 N   0  0  0  0  0  0  0  0  0  0  0  0
   -0.7145   -0.4125    0.0000 C   0  0  0  0  0  0  0  0  0  0  0  0
   -1.4289   -0.0000    0.0000 C   0  0  0  0  0  0  0  0  0  0  0  0
   -2.8579    0.8250    0.0000 C   0  0  0  0  0  0  0  0  0  0  0  0
   -2.8579   -0.0000    0.0000 Cl  0  0  0  0  0  0  0  0  0  0  0  0
  1  2  1  0  0  0  0
  2  3  4  0  0  0  0
  3  4  4  0  0  0  0
  4  5  4  0  0  0  0
  5  6  4  0  0  0  0
  6  7  1  0  0  0  0
  7  8  4  0  0  0  0
  8  9  4  0  0  0  0
  9 10  4  0  0  0  0
 10 11  1  0  0  0  0
 11 12  4  0  0  0  0
 12 13  4  0  0  0  0
 13 14  4  0  0  0  0
 14 15  4  0  0  0  0
 15 16  4  0  0  0  0
 16 17  4  0  0  0  0
 17 18  4  0  0  0  0
 13 18  4  0  0  0  0
 18 19  4  0  0  0  0
 19 20  1  0  0  0  0
 19 21  4  0  0  0  0
 11 21  4  0  0  0  0
 21 22  1  0  0  0  0
 22 23  3  0  0  0  0
 10 24  4  0  0  0  0
 24 25  4  0  0  0  0
  7 25  4  0  0  0  0
  6 26  4  0  0  0  0
  2 26  4  0  0  0  0
 26 27  1  0  0  0  0
M  END
> <IC50(uM)>
1.3

> <Outcome>
0.0

> <BindingDB ID>
50720831

> <BindingDB MonomerID>
50365495

> <BindingDB Ligand Name>
CHEMBL1957460

> <Curation/DataSource>
ChEMBL

> <Article DOI>
10.1016/j.bmcl.2012.01.046

> <PMID>
22321214

> <Patent Number>
?

> <Authors>
Bauer, U; Giordanetto, F; Bauer, M; O'Mahony, G; Johansson, KE; Knecht, W; Hartleib-Geschwindner, J; Carlsson, ET; Enroth, C

> <Link to Ligand in BindingDB>
http://www.bindingdb.org/bind/chemsearch/marvin/MolStructure.jsp?monomerid=50365495

> <Link to Ligand-Target Pair in BindingDB>
http://www.bindingdb.org/jsp/dbsearch/PrimarySearch_ki.jsp?energyterm=kJ/mole&tag=r21&monomerid=50365495&enzyme=Dihydroorotate+dehydrogenase&column=ki&startPg=0&Increment=50&submit=Search

> <PubChem CID>
57328384

> <PubChem SID>
136969557

$$$$

  Mrv2115 07222212352D          

 28 30  0  0  0  0            999 V2000
    2.1434   -2.8875    0.0000 C   0  0  0  0  0  0  0  0  0  0  0  0
    2.1434   -3.7125    0.0000 C   0  0  0  0  0  0  0  0  0  0  0  0
    1.4289   -4.1250    0.0000 C   0  0  0  0  0  0  0  0  0  0  0  0
    1.4289   -4.9500    0.0000 C   0  0  0  0  0  0  0  0  0  0  0  0
    2.1434   -5.3625    0.0000 C   0  0  0  0  0  0  0  0  0  0  0  0
    2.1434   -6.1875    0.0000 N   0  0  0  0  0  0  0  0  0  0  0  0
    1.4289   -6.6000    0.0000 C   0  0  0  0  0  0  0  0  0  0  0  0
    1.4289   -7.4250    0.0000 C   0  0  0  0  0  0  0  0  0  0  0  0
    0.7145   -7.8375    0.0000 C   0  0  0  0  0  0  0  0  0  0  0  0
    0.0000   -7.4250    0.0000 C   0  0  0  0  0  0  0  0  0  0  0  0
   -0.7145   -7.8375    0.0000 C   0  0  0  0  0  0  0  0  0  0  0  0
   -0.7145   -8.6625    0.0000 C   0  0  0  0  0  0  0  0  0  0  0  0
   -1.4289   -9.0750    0.0000 C   0  0  0  0  0  0  0  0  0  0  0  0
   -1.4289   -9.9000    0.0000 O   0  0  0  0  0  0  0  0  0  0  0  0
   -2.1434  -10.3125    0.0000 C   0  0  0  0  0  0  0  0  0  0  0  0
   -2.1434  -11.1375    0.0000 C   0  0  0  0  0  0  0  0  0  0  0  0
   -2.8579   -9.9000    0.0000 C   0  0  0  0  0  0  0  0  0  0  0  0
   -2.1434   -8.6625    0.0000 C   0  0  0  0  0  0  0  0  0  0  0  0
   -2.1434   -7.8375    0.0000 C   0  0  0  0  0  0  0  0  0  0  0  0
   -1.4289   -7.4250    0.0000 C   0  0  0  0  0  0  0  0  0  0  0  0
   -1.4289   -6.6000    0.0000 F   0  0  0  0  0  0  0  0  0  0  0  0
    0.0000   -6.6000    0.0000 N   0  0  0  0  0  0  0  0  0  0  0  0
    0.7145   -6.1875    0.0000 C   0  0  0  0  0  0  0  0  0  0  0  0
    2.8579   -4.9500    0.0000 C   0  0  0  0  0  0  0  0  0  0  0  0
    3.5724   -5.3625    0.0000 C   0  0  0  0  0  0  0  0  0  0  0  0
    4.2868   -4.9500    0.0000 O   0  0  0  0  0  0  0  0  0  0  0  0
    3.5724   -6.1875    0.0000 O   0  0  0  0  0  0  0  0  0  0  0  0
    2.8579   -4.1250    0.0000 C   0  0  0  0  0  0  0  0  0  0  0  0
  1  2  1  0  0  0  0
  2  3  4  0  0  0  0
  3  4  4  0  0  0  0
  4  5  4  0  0  0  0
  5  6  1  0  0  0  0
  6  7  1  0  0  0  0
  7  8  4  0  0  0  0
  8  9  4  0  0  0  0
  9 10  4  0  0  0  0
 10 11  1  0  0  0  0
 11 12  4  0  0  0  0
 12 13  4  0  0  0  0
 13 14  1  0  0  0  0
 14 15  1  0  0  0  0
 15 16  1  0  0  0  0
 15 17  1  0  0  0  0
 13 18  4  0  0  0  0
 18 19  4  0  0  0  0
 19 20  4  0  0  0  0
 11 20  4  0  0  0  0
 20 21  1  0  0  0  0
 10 22  4  0  0  0  0
 22 23  4  0  0  0  0
  7 23  4  0  0  0  0
  5 24  4  0  0  0  0
 24 25  1  0  0  0  0
 25 26  2  0  0  0  0
 25 27  1  0  0  0  0
 24 28  4  0  0  0  0
  2 28  4  0  0  0  0
M  END
> <IC50(uM)>
0.028

> <Outcome>
1.0

> <BindingDB ID>
219998

> <BindingDB MonomerID>
102468

> <BindingDB Ligand Name>
US8536165, 61

> <Curation/DataSource>
US Patent

> <Article DOI>
?

> <PMID>
?

> <Patent Number>
US8536165

> <Authors>
Castro Palomino Laria, JC; Terricabras Belart, E; Erra Sola, M; Navarro Romero, E; Fonquerna Pou, S; Cardus Figueras, A; Lozoya Toribio, ME

> <Link to Ligand in BindingDB>
http://www.bindingdb.org/bind/chemsearch/marvin/MolStructure.jsp?monomerid=102468

> <Link to Ligand-Target Pair in BindingDB>
http://www.bindingdb.org/jsp/dbsearch/PrimarySearch_ki.jsp?energyterm=kJ/mole&tag=r21&monomerid=102468&enzyme=Dihydroorotate+dehydrogenase&column=ki&startPg=0&Increment=50&submit=Search

> <PubChem CID>
46847794

> <PubChem SID>
172097759

$$$$

  Mrv2115 07222212352D          

 27 30  0  0  0  0            999 V2000
    0.0000   -1.6500    0.0000 C   0  0  0  0  0  0  0  0  0  0  0  0
    0.7145   -1.2375    0.0000 C   0  0  0  0  0  0  0  0  0  0  0  0
    0.7145   -0.4125    0.0000 C   0  0  0  0  0  0  0  0  0  0  0  0
    1.4289    0.0000    0.0000 C   0  0  0  0  0  0  0  0  0  0  0  0
    2.1434   -0.4125    0.0000 C   0  0  0  0  0  0  0  0  0  0  0  0
    2.8579    0.0000    0.0000 N   0  0  0  0  0  0  0  0  0  0  0  0
    3.5724   -0.4125    0.0000 C   0  0  0  0  0  0  0  0  0  0  0  0
    4.2868   -0.0000    0.0000 C   0  0  0  0  0  0  0  0  0  0  0  0
    4.2868    0.8250    0.0000 C   0  0  0  0  0  0  0  0  0  0  0  0
    5.0013    1.2375    0.0000 C   0  0  0  0  0  0  0  0  0  0  0  0
    5.7158    0.8250    0.0000 C   0  0  0  0  0  0  0  0  0  0  0  0
    6.4302    1.2375    0.0000 F   0  0  0  0  0  0  0  0  0  0  0  0
    5.7158   -0.0000    0.0000 C   0  0  0  0  0  0  0  0  0  0  0  0
    5.0013   -0.4125    0.0000 C   0  0  0  0  0  0  0  0  0  0  0  0
    3.5724   -1.2375    0.0000 C   0  0  0  0  0  0  0  0  0  0  0  0
    2.8579   -1.6500    0.0000 C   0  0  0  0  0  0  0  0  0  0  0  0
    2.8579   -2.4750    0.0000 C   0  0  0  0  0  0  0  0  0  0  0  0
    2.1434   -2.8875    0.0000 O   0  0  0  0  0  0  0  0  0  0  0  0
    2.1434   -3.7125    0.0000 C   0  0  0  0  0  0  0  0  0  0  0  0
    1.4289   -4.1250    0.0000 C   0  0  0  0  0  0  0  0  0  0  0  0
    1.4289   -4.9500    0.0000 C   0  0  0  0  0  0  0  0  0  0  0  0
    0.7145   -5.3625    0.0000 C   0  0  0  0  0  0  0  0  0  0  0  0
   -0.0000   -4.9500    0.0000 C   0  0  0  0  0  0  0  0  0  0  0  0
   -0.0000   -4.1250    0.0000 C   0  0  0  0  0  0  0  0  0  0  0  0
    0.7145   -3.7125    0.0000 C   0  0  0  0  0  0  0  0  0  0  0  0
    2.1434   -1.2375    0.0000 C   0  0  0  0  0  0  0  0  0  0  0  0
    1.4289   -1.6500    0.0000 C   0  0  0  0  0  0  0  0  0  0  0  0
  1  2  1  0  0  0  0
  2  3  4  0  0  0  0
  3  4  4  0  0  0  0
  4  5  4  0  0  0  0
  5  6  4  0  0  0  0
  6  7  4  0  0  0  0
  7  8  1  0  0  0  0
  8  9  4  0  0  0  0
  9 10  4  0  0  0  0
 10 11  4  0  0  0  0
 11 12  1  0  0  0  0
 11 13  4  0  0  0  0
 13 14  4  0  0  0  0
  8 14  4  0  0  0  0
  7 15  4  0  0  0  0
 15 16  4  0  0  0  0
 16 17  1  0  0  0  0
 17 18  1  0  0  0  0
 18 19  1  0  0  0  0
 19 20  1  0  0  0  0
 20 21  4  0  0  0  0
 21 22  4  0  0  0  0
 22 23  4  0  0  0  0
 23 24  4  0  0  0  0
 24 25  4  0  0  0  0
 20 25  4  0  0  0  0
 16 26  4  0  0  0  0
  5 26  4  0  0  0  0
 26 27  4  0  0  0  0
  2 27  4  0  0  0  0
M  END
> <IC50(uM)>
13.44

> <Outcome>
0.0

> <BindingDB ID>
51311348

> <BindingDB MonomerID>
50532172

> <BindingDB Ligand Name>
CHEMBL4544880

> <Curation/DataSource>
ChEMBL

> <Article DOI>
10.1016/j.bmcl.2019.01.038

> <PMID>
30738663

> <Patent Number>
?

> <Authors>
Vyas, VK; Qureshi, G; Oza, D; Patel, H; Parmar, K; Patel, P; Ghate, MD

> <Link to Ligand in BindingDB>
http://www.bindingdb.org/bind/chemsearch/marvin/MolStructure.jsp?monomerid=50532172

> <Link to Ligand-Target Pair in BindingDB>
http://www.bindingdb.org/jsp/dbsearch/PrimarySearch_ki.jsp?energyterm=kJ/mole&tag=r21&monomerid=50532172&enzyme=Dihydroorotate+dehydrogenase&column=ki&startPg=0&Increment=50&submit=Search

> <PubChem CID>
155552732

> <PubChem SID>
440740754

$$$$

  Mrv2115 07222212352D          

 38 41  0  0  0  0            999 V2000
   -3.1034    2.1599    0.0000 C   0  0  0  0  0  0  0  0  0  0  0  0
   -2.6909    1.4455    0.0000 C   0  0  0  0  0  0  0  0  0  0  0  0
   -3.1034    0.7310    0.0000 O   0  0  0  0  0  0  0  0  0  0  0  0
   -2.6909    0.0165    0.0000 C   0  0  0  0  0  0  0  0  0  0  0  0
   -1.8659    0.0165    0.0000 C   0  0  0  0  0  0  0  0  0  0  0  0
   -1.4534   -0.6979    0.0000 C   0  0  0  0  0  0  0  0  0  0  0  0
   -0.6284   -0.6979    0.0000 N   0  0  0  0  0  0  0  0  0  0  0  0
   -0.1435   -1.3654    0.0000 N   0  0  0  0  0  0  0  0  0  0  0  0
    0.6411   -1.1104    0.0000 C   0  0  0  0  0  0  0  0  0  0  0  0
    0.6411   -0.2854    0.0000 N   0  0  0  0  0  0  0  0  0  0  0  0
   -0.1435   -0.0305    0.0000 C   0  0  0  0  0  0  0  0  0  0  0  0
   -0.3984    0.7541    0.0000 O   0  0  0  0  0  0  0  0  0  0  0  0
    1.3556    0.1271    0.0000 C   0  0  0  0  0  0  0  0  0  0  0  0
    2.0701   -0.2854    0.0000 C   0  0  0  0  0  0  0  0  0  0  0  0
    2.0701   -1.1104    0.0000 C   0  0  0  0  0  0  0  0  0  0  0  0
    1.3556   -1.5229    0.0000 C   0  0  0  0  0  0  0  0  0  0  0  0
    1.3556   -2.3479    0.0000 C   0  0  0  0  0  0  0  0  0  0  0  0
    2.0701   -2.7604    0.0000 O   0  0  0  0  0  0  0  0  0  0  0  0
    0.6411   -2.7604    0.0000 O   0  0  0  0  0  0  0  0  0  0  0  0
   -1.8659   -1.4124    0.0000 C   0  0  0  0  0  0  0  0  0  0  0  0
   -1.4534   -2.1269    0.0000 F   0  0  0  0  0  0  0  0  0  0  0  0
   -2.6909   -1.4124    0.0000 C   0  0  0  0  0  0  0  0  0  0  0  0
   -3.1034   -0.6979    0.0000 C   0  0  0  0  0  0  0  0  0  0  0  0
   -3.9284   -0.6979    0.0000 C   0  0  0  0  0  0  0  0  0  0  0  0
   -4.3409    0.0165    0.0000 O   0  0  0  0  0  0  0  0  0  0  0  0
   -4.3409   -1.4124    0.0000 N   0  0  0  0  0  0  0  0  0  0  0  0
   -5.1659   -1.4124    0.0000 C   0  0  0  0  0  0  0  0  0  0  0  0
   -5.5784   -2.1269    0.0000 C   0  0  0  0  0  0  0  0  0  0  0  0
   -5.1659   -2.8414    0.0000 F   0  0  0  0  0  0  0  0  0  0  0  0
   -6.4034   -2.1269    0.0000 C   0  0  0  0  0  0  0  0  0  0  0  0
   -6.8159   -1.4124    0.0000 C   0  0  0  0  0  0  0  0  0  0  0  0
   -6.4034   -0.6979    0.0000 C   0  0  0  0  0  0  0  0  0  0  0  0
   -5.5784   -0.6979    0.0000 C   0  0  0  0  0  0  0  0  0  0  0  0
   -5.1659    0.0165    0.0000 F   0  0  0  0  0  0  0  0  0  0  0  0
   -1.8659    1.4455    0.0000 C   0  0  0  0  0  0  0  0  0  0  0  0
   -1.8659    0.6205    0.0000 F   0  0  0  0  0  0  0  0  0  0  0  0
   -1.8659    2.2705    0.0000 F   0  0  0  0  0  0  0  0  0  0  0  0
   -1.0409    1.4455    0.0000 F   0  0  0  0  0  0  0  0  0  0  0  0
  1  2  1  0  0  0  0
  2  3  1  0  0  0  0
  3  4  1  0  0  0  0
  4  5  4  0  0  0  0
  5  6  4  0  0  0  0
  6  7  1  0  0  0  0
  7  8  4  0  0  0  0
  8  9  4  0  0  0  0
  9 10  4  0  0  0  0
 10 11  4  0  0  0  0
  7 11  4  0  0  0  0
 11 12  2  0  0  0  0
 10 13  1  0  0  0  0
 13 14  1  0  0  0  0
 14 15  1  0  0  0  0
 15 16  1  0  0  0  0
  9 16  1  0  0  0  0
 16 17  1  0  0  0  0
 17 18  2  0  0  0  0
 17 19  1  0  0  0  0
  6 20  4  0  0  0  0
 20 21  1  0  0  0  0
 20 22  4  0  0  0  0
 22 23  4  0  0  0  0
  4 23  4  0  0  0  0
 23 24  1  0  0  0  0
 24 25  2  0  0  0  0
 24 26  1  0  0  0  0
 26 27  1  0  0  0  0
 27 28  4  0  0  0  0
 28 29  1  0  0  0  0
 28 30  4  0  0  0  0
 30 31  4  0  0  0  0
 31 32  4  0  0  0  0
 32 33  4  0  0  0  0
 27 33  4  0  0  0  0
 33 34  1  0  0  0  0
  2 35  1  0  0  0  0
 35 36  1  0  0  0  0
 35 37  1  0  0  0  0
 35 38  1  0  0  0  0
M  END
> <IC50(uM)>
0.2

> <Outcome>
1.0

> <BindingDB ID>
1020657

> <BindingDB MonomerID>
490586

> <BindingDB Ligand Name>
2-(4-[(2,6-difluorophenyl)carbamoyl]-2-fluoro-5-{[(2S)-1,1,1-trifluoropropan-2-yl]oxy}phenyl)-3-oxo-2,3,5,6,7,8-hexahydro[1,2,4]triazolo[4,3-a]pyridine-8-(R,S)-carboxylic Acid, Mixture of Diastereomers::US10968216, Example 254

> <Curation/DataSource>
US Patent

> <Article DOI>
?

> <PMID>
?

> <Patent Number>
US10968216

> <Authors>
Gradl, SN; Nguyen, D; Eis, K; Gunther, J; Stellfeld, T; Janzer, A; Christian, S; Mueller, T; Sheikh, SE; Zhou, HJ; Zhao, C; Sykes, DB; Ferrara, SJ; Liu, K; Herbert, SA; Merz, C; Niehues, M; Nising, CF; Schafer, M; Zimmermann, K; Knablein, J; Thede, K; Faupel, T

> <Link to Ligand in BindingDB>
http://www.bindingdb.org/bind/chemsearch/marvin/MolStructure.jsp?monomerid=490586

> <Link to Ligand-Target Pair in BindingDB>
http://www.bindingdb.org/jsp/dbsearch/PrimarySearch_ki.jsp?energyterm=kJ/mole&tag=r21&monomerid=490586&enzyme=Dihydroorotate+dehydrogenase&column=ki&startPg=0&Increment=50&submit=Search

> <PubChem CID>
134474459

> <PubChem SID>
447117312

$$$$

  Mrv2115 07222212352D          

 30 33  0  0  0  0            999 V2000
    0.0000   -1.6500    0.0000 C   0  0  0  0  0  0  0  0  0  0  0  0
    0.7145   -1.2375    0.0000 C   0  0  0  0  0  0  0  0  0  0  0  0
    0.7145   -0.4125    0.0000 C   0  0  0  0  0  0  0  0  0  0  0  0
    0.0000    0.0000    0.0000 C   0  0  0  0  0  0  0  0  0  0  0  0
   -0.7145   -0.4125    0.0000 C   0  0  0  0  0  0  0  0  0  0  0  0
   -1.4289    0.0000    0.0000 C   0  0  0  0  0  0  0  0  0  0  0  0
   -1.4289    0.8250    0.0000 C   0  0  0  0  0  0  0  0  0  0  0  0
   -2.1434    1.2375    0.0000 C   0  0  0  0  0  0  0  0  0  0  0  0
   -2.8579    0.8250    0.0000 C   0  0  0  0  0  0  0  0  0  0  0  0
   -3.5724    1.2375    0.0000 C   0  0  0  0  0  0  0  0  0  0  0  0
   -3.5724    2.0625    0.0000 C   0  0  0  0  0  0  0  0  0  0  0  0
   -2.8579    2.4750    0.0000 C   0  0  0  0  0  0  0  0  0  0  0  0
   -2.1434    2.0625    0.0000 C   0  0  0  0  0  0  0  0  0  0  0  0
   -1.4289    2.4750    0.0000 F   0  0  0  0  0  0  0  0  0  0  0  0
   -0.7145    1.2375    0.0000 C   0  0  0  0  0  0  0  0  0  0  0  0
    0.0000    0.8250    0.0000 C   0  0  0  0  0  0  0  0  0  0  0  0
    1.4289    0.0000    0.0000 N   0  0  0  0  0  0  0  0  0  0  0  0
    2.1434   -0.4125    0.0000 C   0  0  0  0  0  0  0  0  0  0  0  0
    2.8579    0.0000    0.0000 C   0  0  0  0  0  0  0  0  0  0  0  0
    3.5724   -0.4125    0.0000 C   0  0  0  0  0  0  0  0  0  0  0  0
    3.5724   -1.2375    0.0000 C   0  0  0  0  0  0  0  0  0  0  0  0
    4.2868   -1.6500    0.0000 F   0  0  0  0  0  0  0  0  0  0  0  0
    2.8579   -1.6500    0.0000 C   0  0  0  0  0  0  0  0  0  0  0  0
    2.1434   -1.2375    0.0000 C   0  0  0  0  0  0  0  0  0  0  0  0
    1.4289   -1.6500    0.0000 C   0  0  0  0  0  0  0  0  0  0  0  0
    1.4289   -2.4750    0.0000 C   0  0  0  0  0  0  0  0  0  0  0  0
    0.7145   -2.8875    0.0000 O   0  0  0  0  0  0  0  0  0  0  0  0
    2.1434   -2.8875    0.0000 N   0  0  0  0  0  0  0  0  0  0  0  0
    2.8579   -2.4750    0.0000 C   0  0  0  0  0  0  0  0  0  0  0  0
    2.1434   -3.7125    0.0000 O   0  0  0  0  0  0  0  0  0  0  0  0
  1  2  1  0  0  0  0
  2  3  4  0  0  0  0
  3  4  1  0  0  0  0
  4  5  4  0  0  0  0
  5  6  4  0  0  0  0
  6  7  4  0  0  0  0
  7  8  1  0  0  0  0
  8  9  4  0  0  0  0
  9 10  4  0  0  0  0
 10 11  4  0  0  0  0
 11 12  4  0  0  0  0
 12 13  4  0  0  0  0
  8 13  4  0  0  0  0
 13 14  1  0  0  0  0
  7 15  4  0  0  0  0
 15 16  4  0  0  0  0
  4 16  4  0  0  0  0
  3 17  4  0  0  0  0
 17 18  4  0  0  0  0
 18 19  4  0  0  0  0
 19 20  4  0  0  0  0
 20 21  4  0  0  0  0
 21 22  1  0  0  0  0
 21 23  4  0  0  0  0
 23 24  4  0  0  0  0
 18 24  4  0  0  0  0
 24 25  4  0  0  0  0
  2 25  4  0  0  0  0
 25 26  1  0  0  0  0
 26 27  2  0  0  0  0
 26 28  1  0  0  0  0
 28 29  1  0  0  0  0
 28 30  1  0  0  0  0
M  END
> <IC50(uM)>
0.0077

> <Outcome>
1.0

> <BindingDB ID>
51370200

> <BindingDB MonomerID>
50554028

> <BindingDB Ligand Name>
CHEMBL4759152

> <Curation/DataSource>
ChEMBL

> <Article DOI>
?

> <PMID>
33007394

> <Patent Number>
?

> <Authors>
DeRatt, LG; Christine Pietsch, E; Tanner, A; Shaffer, P; Jacoby, E; Wang, W; Kazmi, F; Zhang, X; Attar, RM; Edwards, JP; Kuduk, SD

> <Link to Ligand in BindingDB>
http://www.bindingdb.org/bind/chemsearch/marvin/MolStructure.jsp?monomerid=50554028

> <Link to Ligand-Target Pair in BindingDB>
http://www.bindingdb.org/jsp/dbsearch/PrimarySearch_ki.jsp?energyterm=kJ/mole&tag=r21&monomerid=50554028&enzyme=Dihydroorotate+dehydrogenase&column=ki&startPg=0&Increment=50&submit=Search

> <PubChem CID>
162658475

> <PubChem SID>
461692796

$$$$

  Mrv2115 07222212352D          

 28 31  0  0  0  0            999 V2000
    4.7812    1.9354    0.0000 C   0  0  0  0  0  0  0  0  0  0  0  0
    4.0668    2.3479    0.0000 C   0  0  0  0  0  0  0  0  0  0  0  0
    4.0668    3.1729    0.0000 C   0  0  0  0  0  0  0  0  0  0  0  0
    3.3523    1.9354    0.0000 C   0  0  0  0  0  0  0  0  0  0  0  0
    3.3523    1.1104    0.0000 C   0  0  0  0  0  0  0  0  0  0  0  0
    2.6378    0.6979    0.0000 C   0  0  0  0  0  0  0  0  0  0  0  0
    2.6378   -0.1271    0.0000 O   0  0  0  0  0  0  0  0  0  0  0  0
    1.9233    1.1104    0.0000 C   0  0  0  0  0  0  0  0  0  0  0  0
    1.1387    0.8555    0.0000 N   0  0  0  0  0  0  0  0  0  0  0  0
    0.6538    1.5229    0.0000 N   0  0  0  0  0  0  0  0  0  0  0  0
    1.1387    2.1904    0.0000 N   0  0  0  0  0  0  0  0  0  0  0  0
    0.8838    2.9750    0.0000 C   0  0  0  0  0  0  0  0  0  0  0  0
    0.0768    3.1465    0.0000 C   0  0  0  0  0  0  0  0  0  0  0  0
   -0.1781    3.9312    0.0000 C   0  0  0  0  0  0  0  0  0  0  0  0
   -0.9851    4.1027    0.0000 F   0  0  0  0  0  0  0  0  0  0  0  0
    0.3739    4.5442    0.0000 C   0  0  0  0  0  0  0  0  0  0  0  0
    0.1190    5.3289    0.0000 C   0  0  0  0  0  0  0  0  0  0  0  0
   -0.6880    5.5004    0.0000 C   0  0  0  0  0  0  0  0  0  0  0  0
   -0.9429    6.2850    0.0000 C   0  0  0  0  0  0  0  0  0  0  0  0
   -0.3909    6.8981    0.0000 C   0  0  0  0  0  0  0  0  0  0  0  0
    0.4161    6.7266    0.0000 C   0  0  0  0  0  0  0  0  0  0  0  0
    0.6710    5.9420    0.0000 C   0  0  0  0  0  0  0  0  0  0  0  0
    1.4780    5.7704    0.0000 F   0  0  0  0  0  0  0  0  0  0  0  0
    1.1809    4.3727    0.0000 C   0  0  0  0  0  0  0  0  0  0  0  0
    1.7329    4.9858    0.0000 F   0  0  0  0  0  0  0  0  0  0  0  0
    1.4358    3.5881    0.0000 C   0  0  0  0  0  0  0  0  0  0  0  0
    1.9233    1.9354    0.0000 C   0  0  0  0  0  0  0  0  0  0  0  0
    2.6378    2.3479    0.0000 C   0  0  0  0  0  0  0  0  0  0  0  0
  1  2  1  0  0  0  0
  2  3  1  0  0  0  0
  2  4  1  0  0  0  0
  4  5  1  0  0  0  0
  5  6  1  0  0  0  0
  6  7  2  0  0  0  0
  6  8  1  0  0  0  0
  8  9  4  0  0  0  0
  9 10  4  0  0  0  0
 10 11  4  0  0  0  0
 11 12  1  0  0  0  0
 12 13  4  0  0  0  0
 13 14  4  0  0  0  0
 14 15  1  0  0  0  0
 14 16  4  0  0  0  0
 16 17  1  0  0  0  0
 17 18  4  0  0  0  0
 18 19  4  0  0  0  0
 19 20  4  0  0  0  0
 20 21  4  0  0  0  0
 21 22  4  0  0  0  0
 17 22  4  0  0  0  0
 22 23  1  0  0  0  0
 16 24  4  0  0  0  0
 24 25  1  0  0  0  0
 24 26  4  0  0  0  0
 12 26  4  0  0  0  0
 11 27  4  0  0  0  0
  8 27  4  0  0  0  0
 27 28  1  0  0  0  0
  4 28  1  0  0  0  0
M  END
> <IC50(uM)>
0.52

> <Outcome>
1.0

> <BindingDB ID>
51338215

> <BindingDB MonomerID>
50541689

> <BindingDB Ligand Name>
CHEMBL4640504

> <Curation/DataSource>
ChEMBL

> <Article DOI>
10.1021/acs.jmedchem.0c00512

> <PMID>
32496056

> <Patent Number>
?

> <Authors>
Zuo, Z; Liu, X; Qian, X; Zeng, T; Sang, N; Liu, H; Zhou, Y; Tao, L; Zhou, X; Su, N; Yu, Y; Chen, Q; Luo, Y; Zhao, Y

> <Link to Ligand in BindingDB>
http://www.bindingdb.org/bind/chemsearch/marvin/MolStructure.jsp?monomerid=50541689

> <Link to Ligand-Target Pair in BindingDB>
http://www.bindingdb.org/jsp/dbsearch/PrimarySearch_ki.jsp?energyterm=kJ/mole&tag=r21&monomerid=50541689&enzyme=Dihydroorotate+dehydrogenase&column=ki&startPg=0&Increment=50&submit=Search

> <PubChem CID>
154637202

> <PubChem SID>
442143252

$$$$

  Mrv2115 07222212352D          

 26 28  0  0  0  0            999 V2000
    0.0000   -1.6500    0.0000 C   0  0  0  0  0  0  0  0  0  0  0  0
    0.7145   -1.2375    0.0000 C   0  0  0  0  0  0  0  0  0  0  0  0
    0.7145   -0.4125    0.0000 C   0  0  0  0  0  0  0  0  0  0  0  0
    1.4289    0.0000    0.0000 C   0  0  0  0  0  0  0  0  0  0  0  0
    2.1434   -0.4125    0.0000 C   0  0  0  0  0  0  0  0  0  0  0  0
    2.8579    0.0000    0.0000 C   0  0  0  0  0  0  0  0  0  0  0  0
    2.8579    0.8250    0.0000 C   0  0  0  0  0  0  0  0  0  0  0  0
    3.5724    1.2375    0.0000 O   0  0  0  0  0  0  0  0  0  0  0  0
    2.1434    1.2375    0.0000 O   0  0  0  0  0  0  0  0  0  0  0  0
    3.5724   -0.4125    0.0000 C   0  0  0  0  0  0  0  0  0  0  0  0
    4.2868   -0.0000    0.0000 O   0  0  0  0  0  0  0  0  0  0  0  0
    3.5724   -1.2375    0.0000 C   0  0  0  0  0  0  0  0  0  0  0  0
    4.2868   -1.6500    0.0000 C   0  0  0  0  0  0  0  0  0  0  0  0
    5.0013   -1.2375    0.0000 C   0  0  0  0  0  0  0  0  0  0  0  0
    5.7158   -1.6500    0.0000 C   0  0  0  0  0  0  0  0  0  0  0  0
    5.7158   -2.4750    0.0000 C   0  0  0  0  0  0  0  0  0  0  0  0
    6.4302   -2.8875    0.0000 C   0  0  0  0  0  0  0  0  0  0  0  0
    7.1447   -3.3000    0.0000 F   0  0  0  0  0  0  0  0  0  0  0  0
    6.0177   -3.6020    0.0000 F   0  0  0  0  0  0  0  0  0  0  0  0
    6.8427   -2.1730    0.0000 F   0  0  0  0  0  0  0  0  0  0  0  0
    5.0013   -2.8875    0.0000 C   0  0  0  0  0  0  0  0  0  0  0  0
    4.2868   -2.4750    0.0000 C   0  0  0  0  0  0  0  0  0  0  0  0
    2.8579   -1.6500    0.0000 N   0  0  0  0  0  0  0  0  0  0  0  0
    2.1434   -1.2375    0.0000 C   0  0  0  0  0  0  0  0  0  0  0  0
    1.4289   -1.6500    0.0000 C   0  0  0  0  0  0  0  0  0  0  0  0
    1.4289   -2.4750    0.0000 C   0  0  0  0  0  0  0  0  0  0  0  0
  1  2  1  0  0  0  0
  2  3  4  0  0  0  0
  3  4  4  0  0  0  0
  4  5  4  0  0  0  0
  5  6  4  0  0  0  0
  6  7  1  0  0  0  0
  7  8  2  0  0  0  0
  7  9  1  0  0  0  0
  6 10  4  0  0  0  0
 10 11  1  0  0  0  0
 10 12  4  0  0  0  0
 12 13  1  0  0  0  0
 13 14  4  0  0  0  0
 14 15  4  0  0  0  0
 15 16  4  0  0  0  0
 16 17  1  0  0  0  0
 17 18  1  0  0  0  0
 17 19  1  0  0  0  0
 17 20  1  0  0  0  0
 16 21  4  0  0  0  0
 21 22  4  0  0  0  0
 13 22  4  0  0  0  0
 12 23  4  0  0  0  0
 23 24  4  0  0  0  0
  5 24  4  0  0  0  0
 24 25  4  0  0  0  0
  2 25  4  0  0  0  0
 25 26  1  0  0  0  0
M  END
> <IC50(uM)>
32.0

> <Outcome>
0.0

> <BindingDB ID>
50841894

> <BindingDB MonomerID>
50201897

> <BindingDB Ligand Name>
3-hydroxy-7,8-dimethyl-2-(4-(trifluoromethyl)phenyl)quinoline-4-carboxylic acid::CHEMBL219174

> <Curation/DataSource>
ChEMBL

> <Article DOI>
10.1021/jm0602256

> <PMID>
17201408

> <Patent Number>
?

> <Authors>
Kaila, N; Janz, K; DeBernardo, S; Bedard, PW; Camphausen, RT; Tam, S; Tsao, DH; Keith, JC; Nickerson-Nutter, C; Shilling, A; Young-Sciame, R; Wang, Q

> <Link to Ligand in BindingDB>
http://www.bindingdb.org/bind/chemsearch/marvin/MolStructure.jsp?monomerid=50201897

> <Link to Ligand-Target Pair in BindingDB>
http://www.bindingdb.org/jsp/dbsearch/PrimarySearch_ki.jsp?energyterm=kJ/mole&tag=r21&monomerid=50201897&enzyme=Dihydroorotate+dehydrogenase&column=ki&startPg=0&Increment=50&submit=Search

> <PubChem CID>
16099978

> <PubChem SID>
104081548

$$$$

  Mrv2115 07222212352D          

 28 30  0  0  0  0            999 V2000
    1.4289   -2.4750    0.0000 C   0  0  0  0  0  0  0  0  0  0  0  0
    2.1434   -2.8875    0.0000 C   0  0  0  0  0  0  0  0  0  0  0  0
    2.1434   -3.7125    0.0000 C   0  0  0  0  0  0  0  0  0  0  0  0
    1.4289   -4.1250    0.0000 C   0  0  0  0  0  0  0  0  0  0  0  0
    1.4289   -4.9500    0.0000 N   0  0  0  0  0  0  0  0  0  0  0  0
    2.1434   -5.3625    0.0000 C   0  0  0  0  0  0  0  0  0  0  0  0
    2.1434   -6.1875    0.0000 N   0  0  0  0  0  0  0  0  0  0  0  0
    1.4289   -6.6000    0.0000 C   0  0  0  0  0  0  0  0  0  0  0  0
    1.4289   -7.4250    0.0000 C   0  0  0  0  0  0  0  0  0  0  0  0
    2.1434   -7.8375    0.0000 F   0  0  0  0  0  0  0  0  0  0  0  0
    0.7145   -7.8375    0.0000 C   0  0  0  0  0  0  0  0  0  0  0  0
    0.0000   -7.4250    0.0000 C   0  0  0  0  0  0  0  0  0  0  0  0
   -0.7145   -7.8375    0.0000 C   0  0  0  0  0  0  0  0  0  0  0  0
   -0.7145   -8.6625    0.0000 C   0  0  0  0  0  0  0  0  0  0  0  0
   -1.4289   -9.0750    0.0000 C   0  0  0  0  0  0  0  0  0  0  0  0
   -2.1434   -8.6625    0.0000 C   0  0  0  0  0  0  0  0  0  0  0  0
   -2.1434   -7.8375    0.0000 C   0  0  0  0  0  0  0  0  0  0  0  0
   -2.8579   -7.4250    0.0000 O   0  0  0  0  0  0  0  0  0  0  0  0
   -3.5724   -7.8375    0.0000 C   0  0  0  0  0  0  0  0  0  0  0  0
   -1.4289   -7.4250    0.0000 C   0  0  0  0  0  0  0  0  0  0  0  0
    0.0000   -6.6000    0.0000 C   0  0  0  0  0  0  0  0  0  0  0  0
    0.7145   -6.1875    0.0000 C   0  0  0  0  0  0  0  0  0  0  0  0
    0.7145   -5.3625    0.0000 F   0  0  0  0  0  0  0  0  0  0  0  0
    2.8579   -4.9500    0.0000 C   0  0  0  0  0  0  0  0  0  0  0  0
    3.5724   -5.3625    0.0000 C   0  0  0  0  0  0  0  0  0  0  0  0
    3.5724   -6.1875    0.0000 O   0  0  0  0  0  0  0  0  0  0  0  0
    4.2868   -4.9500    0.0000 O   0  0  0  0  0  0  0  0  0  0  0  0
    2.8579   -4.1250    0.0000 C   0  0  0  0  0  0  0  0  0  0  0  0
  1  2  1  0  0  0  0
  2  3  1  0  0  0  0
  3  4  4  0  0  0  0
  4  5  4  0  0  0  0
  5  6  4  0  0  0  0
  6  7  1  0  0  0  0
  7  8  1  0  0  0  0
  8  9  4  0  0  0  0
  9 10  1  0  0  0  0
  9 11  4  0  0  0  0
 11 12  4  0  0  0  0
 12 13  1  0  0  0  0
 13 14  4  0  0  0  0
 14 15  4  0  0  0  0
 15 16  4  0  0  0  0
 16 17  4  0  0  0  0
 17 18  1  0  0  0  0
 18 19  1  0  0  0  0
 17 20  4  0  0  0  0
 13 20  4  0  0  0  0
 12 21  4  0  0  0  0
 21 22  4  0  0  0  0
  8 22  4  0  0  0  0
 22 23  1  0  0  0  0
  6 24  4  0  0  0  0
 24 25  1  0  0  0  0
 25 26  2  0  0  0  0
 25 27  1  0  0  0  0
 24 28  4  0  0  0  0
  3 28  4  0  0  0  0
M  END
> <IC50(uM)>
0.012

> <Outcome>
1.0

> <BindingDB ID>
246913; 51186849

> <BindingDB MonomerID>
119820

> <BindingDB Ligand Name>
US8691852, 40

> <Curation/DataSource>
US Patent; ChEMBL

> <Article DOI>
?; 10.1007/s00044-011-9837-4

> <PMID>
?

> <Patent Number>
US8691852; ?

> <Authors>
Castro Palomino Laria, JC; Erra Sola, M; Lozoya Toribio, ME; Navarro Romero, E; n/a

> <Link to Ligand in BindingDB>
http://www.bindingdb.org/bind/chemsearch/marvin/MolStructure.jsp?monomerid=119820

> <Link to Ligand-Target Pair in BindingDB>
http://www.bindingdb.org/jsp/dbsearch/PrimarySearch_ki.jsp?energyterm=kJ/mole&tag=r21&monomerid=119820&enzyme=Dihydroorotate+dehydrogenase&column=ki&startPg=0&Increment=50&submit=Search

> <PubChem CID>
24987910

> <PubChem SID>
220230614

$$$$

  Mrv2115 07222212352D          

 28 31  0  0  0  0            999 V2000
    0.0000   -1.6500    0.0000 C   0  0  0  0  0  0  0  0  0  0  0  0
    0.7145   -1.2375    0.0000 C   0  0  0  0  0  0  0  0  0  0  0  0
    0.7145   -0.4125    0.0000 C   0  0  0  0  0  0  0  0  0  0  0  0
    0.0000    0.0000    0.0000 C   0  0  0  0  0  0  0  0  0  0  0  0
   -0.7145   -0.4125    0.0000 C   0  0  0  0  0  0  0  0  0  0  0  0
   -1.4289    0.0000    0.0000 C   0  0  0  0  0  0  0  0  0  0  0  0
   -1.4289    0.8250    0.0000 C   0  0  0  0  0  0  0  0  0  0  0  0
   -2.1434    1.2375    0.0000 C   0  0  0  0  0  0  0  0  0  0  0  0
   -2.8579    0.8250    0.0000 C   0  0  0  0  0  0  0  0  0  0  0  0
   -3.5724    1.2375    0.0000 C   0  0  0  0  0  0  0  0  0  0  0  0
   -3.5724    2.0625    0.0000 C   0  0  0  0  0  0  0  0  0  0  0  0
   -2.8579    2.4750    0.0000 C   0  0  0  0  0  0  0  0  0  0  0  0
   -2.1434    2.0625    0.0000 C   0  0  0  0  0  0  0  0  0  0  0  0
   -1.4289    2.4750    0.0000 F   0  0  0  0  0  0  0  0  0  0  0  0
   -0.7145    1.2375    0.0000 C   0  0  0  0  0  0  0  0  0  0  0  0
    0.0000    0.8250    0.0000 C   0  0  0  0  0  0  0  0  0  0  0  0
    1.4289    0.0000    0.0000 N   0  0  0  0  0  0  0  0  0  0  0  0
    2.1434   -0.4125    0.0000 C   0  0  0  0  0  0  0  0  0  0  0  0
    2.8579    0.0000    0.0000 C   0  0  0  0  0  0  0  0  0  0  0  0
    3.5724   -0.4125    0.0000 C   0  0  0  0  0  0  0  0  0  0  0  0
    3.5724   -1.2375    0.0000 C   0  0  0  0  0  0  0  0  0  0  0  0
    4.2868   -1.6500    0.0000 F   0  0  0  0  0  0  0  0  0  0  0  0
    2.8579   -1.6500    0.0000 C   0  0  0  0  0  0  0  0  0  0  0  0
    2.1434   -1.2375    0.0000 C   0  0  0  0  0  0  0  0  0  0  0  0
    1.4289   -1.6500    0.0000 C   0  0  0  0  0  0  0  0  0  0  0  0
    1.4289   -2.4750    0.0000 C   0  0  0  0  0  0  0  0  0  0  0  0
    0.7145   -2.8875    0.0000 N   0  0  0  0  0  0  0  0  0  0  0  0
    2.1434   -2.8875    0.0000 O   0  0  0  0  0  0  0  0  0  0  0  0
  1  2  1  0  0  0  0
  2  3  4  0  0  0  0
  3  4  1  0  0  0  0
  4  5  4  0  0  0  0
  5  6  4  0  0  0  0
  6  7  4  0  0  0  0
  7  8  1  0  0  0  0
  8  9  4  0  0  0  0
  9 10  4  0  0  0  0
 10 11  4  0  0  0  0
 11 12  4  0  0  0  0
 12 13  4  0  0  0  0
  8 13  4  0  0  0  0
 13 14  1  0  0  0  0
  7 15  4  0  0  0  0
 15 16  4  0  0  0  0
  4 16  4  0  0  0  0
  3 17  4  0  0  0  0
 17 18  4  0  0  0  0
 18 19  4  0  0  0  0
 19 20  4  0  0  0  0
 20 21  4  0  0  0  0
 21 22  1  0  0  0  0
 21 23  4  0  0  0  0
 23 24  4  0  0  0  0
 18 24  4  0  0  0  0
 24 25  4  0  0  0  0
  2 25  4  0  0  0  0
 25 26  1  0  0  0  0
 26 27  1  0  0  0  0
 26 28  2  0  0  0  0
M  END
> <IC50(uM)>
0.047

> <Outcome>
1.0

> <BindingDB ID>
51370193

> <BindingDB MonomerID>
50554021

> <BindingDB Ligand Name>
CHEMBL4760819

> <Curation/DataSource>
ChEMBL

> <Article DOI>
?

> <PMID>
33007394

> <Patent Number>
?

> <Authors>
DeRatt, LG; Christine Pietsch, E; Tanner, A; Shaffer, P; Jacoby, E; Wang, W; Kazmi, F; Zhang, X; Attar, RM; Edwards, JP; Kuduk, SD

> <Link to Ligand in BindingDB>
http://www.bindingdb.org/bind/chemsearch/marvin/MolStructure.jsp?monomerid=50554021

> <Link to Ligand-Target Pair in BindingDB>
http://www.bindingdb.org/jsp/dbsearch/PrimarySearch_ki.jsp?energyterm=kJ/mole&tag=r21&monomerid=50554021&enzyme=Dihydroorotate+dehydrogenase&column=ki&startPg=0&Increment=50&submit=Search

> <PubChem CID>
147242941

> <PubChem SID>
461692789

$$$$

  Mrv2115 07222212352D          

 18 19  0  0  0  0            999 V2000
   -0.7145   -0.4125    0.0000 C   0  0  0  0  0  0  0  0  0  0  0  0
   -0.7145   -1.2375    0.0000 C   0  0  0  0  0  0  0  0  0  0  0  0
   -1.4289   -1.6500    0.0000 C   0  0  0  0  0  0  0  0  0  0  0  0
   -2.1434   -1.2375    0.0000 Cl  0  0  0  0  0  0  0  0  0  0  0  0
   -1.4289   -2.4750    0.0000 C   0  0  0  0  0  0  0  0  0  0  0  0
   -0.7145   -2.8875    0.0000 C   0  0  0  0  0  0  0  0  0  0  0  0
    0.0000   -2.4750    0.0000 C   0  0  0  0  0  0  0  0  0  0  0  0
    0.0000   -1.6500    0.0000 C   0  0  0  0  0  0  0  0  0  0  0  0
    0.7145   -1.2375    0.0000 N   0  0  0  0  0  0  0  0  0  0  0  0
    0.7145   -0.4125    0.0000 C   0  0  0  0  0  0  0  0  0  0  0  0
    0.0000   -0.0000    0.0000 N   0  0  0  0  0  0  0  0  0  0  0  0
    0.0000    0.8250    0.0000 C   0  0  0  0  0  0  0  0  0  0  0  0
    0.7145    1.2375    0.0000 C   0  0  0  0  0  0  0  0  0  0  0  0
    1.4289    0.8250    0.0000 C   0  0  0  0  0  0  0  0  0  0  0  0
    1.4289   -0.0000    0.0000 C   0  0  0  0  0  0  0  0  0  0  0  0
    2.1434   -0.4125    0.0000 C   0  0  0  0  0  0  0  0  0  0  0  0
    2.1434   -1.2375    0.0000 O   0  0  0  0  0  0  0  0  0  0  0  0
    2.8579    0.0000    0.0000 O   0  0  0  0  0  0  0  0  0  0  0  0
  1  2  1  0  0  0  0
  2  3  4  0  0  0  0
  3  4  1  0  0  0  0
  3  5  4  0  0  0  0
  5  6  4  0  0  0  0
  6  7  4  0  0  0  0
  7  8  4  0  0  0  0
  2  8  4  0  0  0  0
  8  9  1  0  0  0  0
  9 10  1  0  0  0  0
 10 11  4  0  0  0  0
 11 12  4  0  0  0  0
 12 13  4  0  0  0  0
 13 14  4  0  0  0  0
 14 15  4  0  0  0  0
 10 15  4  0  0  0  0
 15 16  1  0  0  0  0
 16 17  2  0  0  0  0
 16 18  1  0  0  0  0
M  END
> <IC50(uM)>
13.0

> <Outcome>
0.0

> <BindingDB ID>
50527767

> <BindingDB MonomerID>
50201612

> <BindingDB Ligand Name>
CHEBI:76200::CLONIXIN::Clonixin::SCH-10304

> <Curation/DataSource>
ChEMBL

> <Article DOI>
10.1021/acsmedchemlett.6b00316

> <PMID>
27994748

> <Patent Number>
?

> <Authors>
Lewis, TA; Sykes, DB; Law, JM; Mu??oz, B; Rustiguel, JK; Nonato, MC; Scadden, DT; Schreiber, SL

> <Link to Ligand in BindingDB>
http://www.bindingdb.org/bind/chemsearch/marvin/MolStructure.jsp?monomerid=50201612

> <Link to Ligand-Target Pair in BindingDB>
http://www.bindingdb.org/jsp/dbsearch/PrimarySearch_ki.jsp?energyterm=kJ/mole&tag=r21&monomerid=50201612&enzyme=Dihydroorotate+dehydrogenase&column=ki&startPg=0&Increment=50&submit=Search

> <PubChem CID>
28718

> <PubChem SID>
375979402

$$$$

  Mrv2115 07222212352D          

 34 37  0  0  0  0            999 V2000
   -5.1659    1.4455    0.0000 C   0  0  0  0  0  0  0  0  0  0  0  0
   -4.3409    1.4455    0.0000 C   0  0  0  0  0  0  0  0  0  0  0  0
   -3.9284    2.1599    0.0000 C   0  0  0  0  0  0  0  0  0  0  0  0
   -3.1034    2.1599    0.0000 C   0  0  0  0  0  0  0  0  0  0  0  0
   -2.6909    1.4455    0.0000 C   0  0  0  0  0  0  0  0  0  0  0  0
   -3.1034    0.7310    0.0000 C   0  0  0  0  0  0  0  0  0  0  0  0
   -3.9284    0.7310    0.0000 C   0  0  0  0  0  0  0  0  0  0  0  0
   -4.3409    0.0165    0.0000 N   0  0  0  0  0  0  0  0  0  0  0  0
   -3.9284   -0.6979    0.0000 C   0  0  0  0  0  0  0  0  0  0  0  0
   -4.3409   -1.4124    0.0000 O   0  0  0  0  0  0  0  0  0  0  0  0
   -3.1034   -0.6979    0.0000 C   0  0  0  0  0  0  0  0  0  0  0  0
   -2.6909    0.0165    0.0000 C   0  0  0  0  0  0  0  0  0  0  0  0
   -1.8659    0.0165    0.0000 C   0  0  0  0  0  0  0  0  0  0  0  0
   -1.4534    0.7310    0.0000 F   0  0  0  0  0  0  0  0  0  0  0  0
   -1.4534   -0.6979    0.0000 C   0  0  0  0  0  0  0  0  0  0  0  0
   -0.6284   -0.6979    0.0000 N   0  0  0  0  0  0  0  0  0  0  0  0
   -0.1435   -1.3654    0.0000 N   0  0  0  0  0  0  0  0  0  0  0  0
    0.6411   -1.1104    0.0000 C   0  0  0  0  0  0  0  0  0  0  0  0
    0.6411   -0.2854    0.0000 N   0  0  0  0  0  0  0  0  0  0  0  0
   -0.1435   -0.0305    0.0000 C   0  0  0  0  0  0  0  0  0  0  0  0
   -0.3984    0.7541    0.0000 O   0  0  0  0  0  0  0  0  0  0  0  0
    1.3556    0.1271    0.0000 C   0  0  0  0  0  0  0  0  0  0  0  0
    2.0701   -0.2854    0.0000 C   0  0  0  0  0  0  0  0  0  0  0  0
    2.0701   -1.1104    0.0000 C   0  0  0  0  0  0  0  0  0  0  0  0
    1.3556   -1.5229    0.0000 C   0  0  0  0  0  0  0  0  0  0  0  0
   -1.8659   -1.4124    0.0000 C   0  0  0  0  0  0  0  0  0  0  0  0
   -2.6909   -1.4124    0.0000 C   0  0  0  0  0  0  0  0  0  0  0  0
   -3.1034   -2.1269    0.0000 O   0  0  0  0  0  0  0  0  0  0  0  0
   -2.6909   -2.8414    0.0000 C   0  0  0  0  0  0  0  0  0  0  0  0
   -1.8659   -2.8414    0.0000 C   0  0  0  0  0  0  0  0  0  0  0  0
   -3.1034   -3.5558    0.0000 C   0  0  0  0  0  0  0  0  0  0  0  0
   -3.8179   -3.1433    0.0000 F   0  0  0  0  0  0  0  0  0  0  0  0
   -2.3890   -3.9683    0.0000 F   0  0  0  0  0  0  0  0  0  0  0  0
   -3.5159   -4.2703    0.0000 F   0  0  0  0  0  0  0  0  0  0  0  0
  1  2  1  0  0  0  0
  2  3  4  0  0  0  0
  3  4  4  0  0  0  0
  4  5  4  0  0  0  0
  5  6  4  0  0  0  0
  6  7  4  0  0  0  0
  2  7  4  0  0  0  0
  7  8  1  0  0  0  0
  8  9  1  0  0  0  0
  9 10  2  0  0  0  0
  9 11  1  0  0  0  0
 11 12  4  0  0  0  0
 12 13  4  0  0  0  0
 13 14  1  0  0  0  0
 13 15  4  0  0  0  0
 15 16  1  0  0  0  0
 16 17  4  0  0  0  0
 17 18  4  0  0  0  0
 18 19  4  0  0  0  0
 19 20  4  0  0  0  0
 16 20  4  0  0  0  0
 20 21  2  0  0  0  0
 19 22  1  0  0  0  0
 22 23  1  0  0  0  0
 23 24  1  0  0  0  0
 24 25  1  0  0  0  0
 18 25  1  0  0  0  0
 15 26  4  0  0  0  0
 26 27  4  0  0  0  0
 11 27  4  0  0  0  0
 27 28  1  0  0  0  0
 28 29  1  0  0  0  0
 29 30  1  0  0  0  0
 29 31  1  0  0  0  0
 31 32  1  0  0  0  0
 31 33  1  0  0  0  0
 31 34  1  0  0  0  0
M  END
> <IC50(uM)>
0.0036249999999999998

> <Outcome>
1.0

> <BindingDB ID>
1020452; 1020451

> <BindingDB MonomerID>
490402

> <BindingDB Ligand Name>
5-fluoro-N-(2-methylphenyl)-4-(3-oxo-5,6,7,8-tetrahydro[1,2,4]triazolo[4,3-a]pyridin-2(3H)-yl)-2-{[(2S)-1,1,1-trifluoropropan-2-yl]oxy}benzamide::US10968216, Example 70

> <Curation/DataSource>
US Patent

> <Article DOI>
?

> <PMID>
?

> <Patent Number>
US10968216

> <Authors>
Gradl, SN; Nguyen, D; Eis, K; Gunther, J; Stellfeld, T; Janzer, A; Christian, S; Mueller, T; Sheikh, SE; Zhou, HJ; Zhao, C; Sykes, DB; Ferrara, SJ; Liu, K; Herbert, SA; Merz, C; Niehues, M; Nising, CF; Schafer, M; Zimmermann, K; Knablein, J; Thede, K; Faupel, T

> <Link to Ligand in BindingDB>
http://www.bindingdb.org/bind/chemsearch/marvin/MolStructure.jsp?monomerid=490402

> <Link to Ligand-Target Pair in BindingDB>
http://www.bindingdb.org/jsp/dbsearch/PrimarySearch_ki.jsp?energyterm=kJ/mole&tag=r21&monomerid=490402&enzyme=Dihydroorotate+dehydrogenase&column=ki&startPg=0&Increment=50&submit=Search

> <PubChem CID>
134473898

> <PubChem SID>
447117129

$$$$

  Mrv2115 07222212352D          

 25 27  0  0  0  0            999 V2000
   -0.7145   -0.4125    0.0000 C   0  0  0  0  0  0  0  0  0  0  0  0
   -0.7145   -1.2375    0.0000 C   0  0  0  0  0  0  0  0  0  0  0  0
   -1.4289   -1.6500    0.0000 C   0  0  0  0  0  0  0  0  0  0  0  0
   -2.1434   -1.2375    0.0000 C   0  0  0  0  0  0  0  0  0  0  0  0
   -2.8579   -1.6500    0.0000 C   0  0  0  0  0  0  0  0  0  0  0  0
   -3.5724   -1.2375    0.0000 C   0  0  0  0  0  0  0  0  0  0  0  0
   -3.5724   -0.4125    0.0000 C   0  0  0  0  0  0  0  0  0  0  0  0
   -2.8579   -0.0000    0.0000 C   0  0  0  0  0  0  0  0  0  0  0  0
   -2.1434   -0.4125    0.0000 C   0  0  0  0  0  0  0  0  0  0  0  0
   -1.4289   -2.4750    0.0000 C   0  0  0  0  0  0  0  0  0  0  0  0
   -0.7145   -2.8875    0.0000 C   0  0  0  0  0  0  0  0  0  0  0  0
   -0.7145   -3.7125    0.0000 F   0  0  0  0  0  0  0  0  0  0  0  0
    0.0000   -2.4750    0.0000 C   0  0  0  0  0  0  0  0  0  0  0  0
    0.7145   -2.8875    0.0000 N   0  0  0  0  0  0  0  0  0  0  0  0
    1.4289   -2.4750    0.0000 C   0  0  0  0  0  0  0  0  0  0  0  0
    1.4289   -1.6500    0.0000 N   0  0  0  0  0  0  0  0  0  0  0  0
    2.1434   -1.2375    0.0000 C   0  0  0  0  0  0  0  0  0  0  0  0
    2.8579   -1.6500    0.0000 C   0  0  0  0  0  0  0  0  0  0  0  0
    2.8579   -2.4750    0.0000 C   0  0  0  0  0  0  0  0  0  0  0  0
    2.1434   -2.8875    0.0000 C   0  0  0  0  0  0  0  0  0  0  0  0
    2.1434   -3.7125    0.0000 C   0  0  0  0  0  0  0  0  0  0  0  0
    1.4289   -4.1250    0.0000 O   0  0  0  0  0  0  0  0  0  0  0  0
    2.8579   -4.1250    0.0000 O   0  0  0  0  0  0  0  0  0  0  0  0
    0.0000   -1.6500    0.0000 C   0  0  0  0  0  0  0  0  0  0  0  0
    0.7145   -1.2375    0.0000 F   0  0  0  0  0  0  0  0  0  0  0  0
  1  2  1  0  0  0  0
  2  3  4  0  0  0  0
  3  4  1  0  0  0  0
  4  5  4  0  0  0  0
  5  6  4  0  0  0  0
  6  7  4  0  0  0  0
  7  8  4  0  0  0  0
  8  9  4  0  0  0  0
  4  9  4  0  0  0  0
  3 10  4  0  0  0  0
 10 11  4  0  0  0  0
 11 12  1  0  0  0  0
 11 13  4  0  0  0  0
 13 14  1  0  0  0  0
 14 15  1  0  0  0  0
 15 16  4  0  0  0  0
 16 17  4  0  0  0  0
 17 18  4  0  0  0  0
 18 19  4  0  0  0  0
 19 20  4  0  0  0  0
 15 20  4  0  0  0  0
 20 21  1  0  0  0  0
 21 22  2  0  0  0  0
 21 23  1  0  0  0  0
 13 24  4  0  0  0  0
  2 24  4  0  0  0  0
 24 25  1  0  0  0  0
M  END
> <IC50(uM)>
0.004999999999999999

> <Outcome>
1.0

> <BindingDB ID>
246917; 51186836

> <BindingDB MonomerID>
119824

> <BindingDB Ligand Name>
US8691852, 48

> <Curation/DataSource>
US Patent; ChEMBL

> <Article DOI>
?; 10.1007/s00044-011-9837-4

> <PMID>
?

> <Patent Number>
US8691852; ?

> <Authors>
Castro Palomino Laria, JC; Erra Sola, M; Lozoya Toribio, ME; Navarro Romero, E; n/a

> <Link to Ligand in BindingDB>
http://www.bindingdb.org/bind/chemsearch/marvin/MolStructure.jsp?monomerid=119824

> <Link to Ligand-Target Pair in BindingDB>
http://www.bindingdb.org/jsp/dbsearch/PrimarySearch_ki.jsp?energyterm=kJ/mole&tag=r21&monomerid=119824&enzyme=Dihydroorotate+dehydrogenase&column=ki&startPg=0&Increment=50&submit=Search

> <PubChem CID>
24988658

> <PubChem SID>
220230618

$$$$

  Mrv2115 07222212352D          

 30 33  0  0  0  0            999 V2000
   -3.1034    2.1599    0.0000 C   0  0  0  0  0  0  0  0  0  0  0  0
   -2.6909    1.4455    0.0000 C   0  0  0  0  0  0  0  0  0  0  0  0
   -3.1034    0.7310    0.0000 O   0  0  0  0  0  0  0  0  0  0  0  0
   -2.6909    0.0165    0.0000 C   0  0  0  0  0  0  0  0  0  0  0  0
   -1.8659    0.0165    0.0000 C   0  0  0  0  0  0  0  0  0  0  0  0
   -1.4534   -0.6979    0.0000 C   0  0  0  0  0  0  0  0  0  0  0  0
   -0.6284   -0.6979    0.0000 N   0  0  0  0  0  0  0  0  0  0  0  0
   -0.1435   -1.3654    0.0000 N   0  0  0  0  0  0  0  0  0  0  0  0
    0.6411   -1.1104    0.0000 C   0  0  0  0  0  0  0  0  0  0  0  0
    0.6411   -0.2854    0.0000 N   0  0  0  0  0  0  0  0  0  0  0  0
   -0.1435   -0.0305    0.0000 C   0  0  0  0  0  0  0  0  0  0  0  0
   -0.3984    0.7541    0.0000 O   0  0  0  0  0  0  0  0  0  0  0  0
    1.3556    0.1271    0.0000 C   0  0  0  0  0  0  0  0  0  0  0  0
    2.0701   -0.2854    0.0000 C   0  0  0  0  0  0  0  0  0  0  0  0
    2.0701   -1.1104    0.0000 C   0  0  0  0  0  0  0  0  0  0  0  0
    1.3556   -1.5229    0.0000 C   0  0  0  0  0  0  0  0  0  0  0  0
   -1.8659   -1.4124    0.0000 C   0  0  0  0  0  0  0  0  0  0  0  0
   -1.4534   -2.1269    0.0000 F   0  0  0  0  0  0  0  0  0  0  0  0
   -2.6909   -1.4124    0.0000 C   0  0  0  0  0  0  0  0  0  0  0  0
   -3.1034   -0.6979    0.0000 C   0  0  0  0  0  0  0  0  0  0  0  0
   -3.9284   -0.6979    0.0000 C   0  0  0  0  0  0  0  0  0  0  0  0
   -4.3409    0.0165    0.0000 O   0  0  0  0  0  0  0  0  0  0  0  0
   -4.3409   -1.4124    0.0000 N   0  0  0  0  0  0  0  0  0  0  0  0
   -5.1659   -1.4124    0.0000 C   0  0  0  0  0  0  0  0  0  0  0  0
   -5.8804   -1.8249    0.0000 C   0  0  0  0  0  0  0  0  0  0  0  0
   -5.8804   -0.9999    0.0000 C   0  0  0  0  0  0  0  0  0  0  0  0
   -1.8659    1.4455    0.0000 C   0  0  0  0  0  0  0  0  0  0  0  0
   -1.8659    0.6205    0.0000 F   0  0  0  0  0  0  0  0  0  0  0  0
   -1.8659    2.2705    0.0000 F   0  0  0  0  0  0  0  0  0  0  0  0
   -1.0409    1.4455    0.0000 F   0  0  0  0  0  0  0  0  0  0  0  0
  1  2  1  0  0  0  0
  2  3  1  0  0  0  0
  3  4  1  0  0  0  0
  4  5  4  0  0  0  0
  5  6  4  0  0  0  0
  6  7  1  0  0  0  0
  7  8  4  0  0  0  0
  8  9  4  0  0  0  0
  9 10  4  0  0  0  0
 10 11  4  0  0  0  0
  7 11  4  0  0  0  0
 11 12  2  0  0  0  0
 10 13  1  0  0  0  0
 13 14  1  0  0  0  0
 14 15  1  0  0  0  0
 15 16  1  0  0  0  0
  9 16  1  0  0  0  0
  6 17  4  0  0  0  0
 17 18  1  0  0  0  0
 17 19  4  0  0  0  0
 19 20  4  0  0  0  0
  4 20  4  0  0  0  0
 20 21  1  0  0  0  0
 21 22  2  0  0  0  0
 21 23  1  0  0  0  0
 23 24  1  0  0  0  0
 24 25  1  0  0  0  0
 25 26  1  0  0  0  0
 24 26  1  0  0  0  0
  2 27  1  0  0  0  0
 27 28  1  0  0  0  0
 27 29  1  0  0  0  0
 27 30  1  0  0  0  0
M  END
> <IC50(uM)>
1.6

> <Outcome>
0.0

> <BindingDB ID>
1020428

> <BindingDB MonomerID>
490379

> <BindingDB Ligand Name>
N-cyclopropyl-5-fluoro-4-(3-oxo-5,6,7,8-tetrahydro[1,2,4]triazolo[4,3-a]pyridin-2(3H)-yl)-2-{[(2S)-1,1,1-trifluoropropan-2-yl]oxy}benzamide::US10968216, Example 47

> <Curation/DataSource>
US Patent

> <Article DOI>
?

> <PMID>
?

> <Patent Number>
US10968216

> <Authors>
Gradl, SN; Nguyen, D; Eis, K; Gunther, J; Stellfeld, T; Janzer, A; Christian, S; Mueller, T; Sheikh, SE; Zhou, HJ; Zhao, C; Sykes, DB; Ferrara, SJ; Liu, K; Herbert, SA; Merz, C; Niehues, M; Nising, CF; Schafer, M; Zimmermann, K; Knablein, J; Thede, K; Faupel, T

> <Link to Ligand in BindingDB>
http://www.bindingdb.org/bind/chemsearch/marvin/MolStructure.jsp?monomerid=490379

> <Link to Ligand-Target Pair in BindingDB>
http://www.bindingdb.org/jsp/dbsearch/PrimarySearch_ki.jsp?energyterm=kJ/mole&tag=r21&monomerid=490379&enzyme=Dihydroorotate+dehydrogenase&column=ki&startPg=0&Increment=50&submit=Search

> <PubChem CID>
134473950

> <PubChem SID>
447117106

$$$$

  Mrv2115 07222212352D          

 21 23  0  0  0  0            999 V2000
    7.4472    4.3948    0.0000 C   0  0  0  0  0  0  0  0  0  0  0  0
    6.6626    4.1399    0.0000 C   0  0  0  0  0  0  0  0  0  0  0  0
    6.4911    3.3329    0.0000 O   0  0  0  0  0  0  0  0  0  0  0  0
    5.7064    3.0780    0.0000 C   0  0  0  0  0  0  0  0  0  0  0  0
    5.0933    3.6300    0.0000 O   0  0  0  0  0  0  0  0  0  0  0  0
    5.5349    2.2710    0.0000 C   0  0  0  0  0  0  0  0  0  0  0  0
    6.0869    1.6579    0.0000 C   0  0  0  0  0  0  0  0  0  0  0  0
    6.9074    1.7441    0.0000 O   0  0  0  0  0  0  0  0  0  0  0  0
    5.6744    0.9434    0.0000 C   0  0  0  0  0  0  0  0  0  0  0  0
    4.8675    1.1150    0.0000 O   0  0  0  0  0  0  0  0  0  0  0  0
    4.7812    1.9354    0.0000 C   0  0  0  0  0  0  0  0  0  0  0  0
    4.0668    2.3479    0.0000 N   0  0  0  0  0  0  0  0  0  0  0  0
    3.3523    1.9354    0.0000 C   0  0  0  0  0  0  0  0  0  0  0  0
    3.3523    1.1104    0.0000 C   0  0  0  0  0  0  0  0  0  0  0  0
    2.6378    0.6979    0.0000 C   0  0  0  0  0  0  0  0  0  0  0  0
    1.9233    1.1104    0.0000 C   0  0  0  0  0  0  0  0  0  0  0  0
    1.9233    1.9354    0.0000 C   0  0  0  0  0  0  0  0  0  0  0  0
    2.6378    2.3479    0.0000 C   0  0  0  0  0  0  0  0  0  0  0  0
    1.1387    2.1904    0.0000 C   0  0  0  0  0  0  0  0  0  0  0  0
    0.6538    1.5229    0.0000 C   0  0  0  0  0  0  0  0  0  0  0  0
    1.1387    0.8555    0.0000 C   0  0  0  0  0  0  0  0  0  0  0  0
  1  2  1  0  0  0  0
  2  3  1  0  0  0  0
  3  4  1  0  0  0  0
  4  5  2  0  0  0  0
  4  6  1  0  0  0  0
  6  7  4  0  0  0  0
  7  8  1  0  0  0  0
  7  9  4  0  0  0  0
  9 10  4  0  0  0  0
 10 11  4  0  0  0  0
  6 11  4  0  0  0  0
 11 12  1  0  0  0  0
 12 13  1  0  0  0  0
 13 14  4  0  0  0  0
 14 15  4  0  0  0  0
 15 16  4  0  0  0  0
 16 17  4  0  0  0  0
 17 18  4  0  0  0  0
 13 18  4  0  0  0  0
 17 19  1  0  0  0  0
 19 20  1  0  0  0  0
 20 21  1  0  0  0  0
 16 21  1  0  0  0  0
M  END
> <IC50(uM)>
50.0

> <Outcome>
0.0

> <BindingDB ID>
51079141

> <BindingDB MonomerID>
50441249

> <BindingDB Ligand Name>
CHEMBL2431500

> <Curation/DataSource>
ChEMBL

> <Article DOI>
10.1021/jm400938g

> <PMID>
24073986

> <Patent Number>
?

> <Authors>
Xu, M; Zhu, J; Diao, Y; Zhou, H; Ren, X; Sun, D; Huang, J; Han, D; Zhao, Z; Zhu, L; Xu, Y; Li, H

> <Link to Ligand in BindingDB>
http://www.bindingdb.org/bind/chemsearch/marvin/MolStructure.jsp?monomerid=50441249

> <Link to Ligand-Target Pair in BindingDB>
http://www.bindingdb.org/jsp/dbsearch/PrimarySearch_ki.jsp?energyterm=kJ/mole&tag=r21&monomerid=50441249&enzyme=Dihydroorotate+dehydrogenase&column=ki&startPg=0&Increment=50&submit=Search

> <PubChem CID>
91898810

> <PubChem SID>
175453566

$$$$

  Mrv2115 07222212352D          

 35 37  0  0  0  0            999 V2000
    4.2868   -2.4750    0.0000 C   0  0  0  0  0  0  0  0  0  0  0  0
    3.5724   -2.8875    0.0000 C   0  0  0  0  0  0  0  0  0  0  0  0
    2.8579   -2.4750    0.0000 O   0  0  0  0  0  0  0  0  0  0  0  0
    2.1434   -2.8875    0.0000 C   0  0  0  0  0  0  0  0  0  0  0  0
    2.1434   -3.7125    0.0000 C   0  0  0  0  0  0  0  0  0  0  0  0
    1.4289   -4.1250    0.0000 C   0  0  0  0  0  0  0  0  0  0  0  0
    1.4289   -4.9500    0.0000 N   0  0  0  0  0  0  0  0  0  0  0  0
    2.0964   -5.4349    0.0000 N   0  0  0  0  0  0  0  0  0  0  0  0
    1.8414   -6.2195    0.0000 C   0  0  0  0  0  0  0  0  0  0  0  0
    2.3264   -6.8870    0.0000 C   0  0  0  0  0  0  0  0  0  0  0  0
    1.9908   -7.6407    0.0000 N   0  0  0  0  0  0  0  0  0  0  0  0
    3.1468   -6.8007    0.0000 O   0  0  0  0  0  0  0  0  0  0  0  0
    1.0164   -6.2195    0.0000 N   0  0  0  0  0  0  0  0  0  0  0  0
    0.5315   -6.8870    0.0000 C   0  0  0  0  0  0  0  0  0  0  0  0
    0.7615   -5.4349    0.0000 C   0  0  0  0  0  0  0  0  0  0  0  0
   -0.0231   -5.1800    0.0000 O   0  0  0  0  0  0  0  0  0  0  0  0
    0.7145   -3.7125    0.0000 C   0  0  0  0  0  0  0  0  0  0  0  0
    0.0000   -4.1250    0.0000 F   0  0  0  0  0  0  0  0  0  0  0  0
    0.7145   -2.8875    0.0000 C   0  0  0  0  0  0  0  0  0  0  0  0
    1.4289   -2.4750    0.0000 C   0  0  0  0  0  0  0  0  0  0  0  0
    1.4289   -1.6500    0.0000 C   0  0  0  0  0  0  0  0  0  0  0  0
    2.1434   -1.2375    0.0000 O   0  0  0  0  0  0  0  0  0  0  0  0
    0.7145   -1.2375    0.0000 N   0  0  0  0  0  0  0  0  0  0  0  0
    0.7145   -0.4125    0.0000 C   0  0  0  0  0  0  0  0  0  0  0  0
    0.0000    0.0000    0.0000 C   0  0  0  0  0  0  0  0  0  0  0  0
   -0.7145   -0.4125    0.0000 F   0  0  0  0  0  0  0  0  0  0  0  0
    0.0000    0.8250    0.0000 C   0  0  0  0  0  0  0  0  0  0  0  0
    0.7145    1.2375    0.0000 C   0  0  0  0  0  0  0  0  0  0  0  0
    1.4289    0.8250    0.0000 C   0  0  0  0  0  0  0  0  0  0  0  0
    1.4289    0.0000    0.0000 C   0  0  0  0  0  0  0  0  0  0  0  0
    2.1434   -0.4125    0.0000 F   0  0  0  0  0  0  0  0  0  0  0  0
    3.5724   -3.7125    0.0000 C   0  0  0  0  0  0  0  0  0  0  0  0
    2.7474   -3.7125    0.0000 F   0  0  0  0  0  0  0  0  0  0  0  0
    4.3974   -3.7125    0.0000 F   0  0  0  0  0  0  0  0  0  0  0  0
    3.5724   -4.5375    0.0000 F   0  0  0  0  0  0  0  0  0  0  0  0
  1  2  1  0  0  0  0
  2  3  1  0  0  0  0
  3  4  1  0  0  0  0
  4  5  4  0  0  0  0
  5  6  4  0  0  0  0
  6  7  1  0  0  0  0
  7  8  4  0  0  0  0
  8  9  4  0  0  0  0
  9 10  1  0  0  0  0
 10 11  1  0  0  0  0
 10 12  2  0  0  0  0
  9 13  4  0  0  0  0
 13 14  1  0  0  0  0
 13 15  4  0  0  0  0
  7 15  4  0  0  0  0
 15 16  2  0  0  0  0
  6 17  4  0  0  0  0
 17 18  1  0  0  0  0
 17 19  4  0  0  0  0
 19 20  4  0  0  0  0
  4 20  4  0  0  0  0
 20 21  1  0  0  0  0
 21 22  2  0  0  0  0
 21 23  1  0  0  0  0
 23 24  1  0  0  0  0
 24 25  4  0  0  0  0
 25 26  1  0  0  0  0
 25 27  4  0  0  0  0
 27 28  4  0  0  0  0
 28 29  4  0  0  0  0
 29 30  4  0  0  0  0
 24 30  4  0  0  0  0
 30 31  1  0  0  0  0
  2 32  1  0  0  0  0
 32 33  1  0  0  0  0
 32 34  1  0  0  0  0
 32 35  1  0  0  0  0
M  END
> <IC50(uM)>
0.063

> <Outcome>
1.0

> <BindingDB ID>
1098843; 972689

> <BindingDB MonomerID>
470567

> <BindingDB Ligand Name>
1-(4-[(2,6-difluorophenyl)carbamoyl]-2-fluoro-5-{[(2S)-1,1,1-trifluoropropan-2-yl]oxy}phenyl)-4-methyl-5-oxo-4,5-dihydro-1H-1,2,4-triazole-3-carboxamide::US10815215, Example 227::US11130745, Example 227; 1-(4-[(2,6-difluorophenyl)carbamoyl]-2-fluoro-5-{[(2S)-1,1,1-trifluoropropan-2-yl]oxy}phenyl)-4-methyl-5-oxo-4,5-dihydro-1H-1,2,4-triazole-3-carboxamide::US10815215, Example 227

> <Curation/DataSource>
US Patent

> <Article DOI>
?

> <PMID>
?

> <Patent Number>
US11130745; US10815215

> <Authors>
Gradl, SN; Nguyen, D; Eis, K; Gunther, J; Stellfeld, T; Janzer, A; Christian, S; Muller, T; Sheikh, SE; Sykes, DB; Ferrara, SJ; Krober, M; Merz, C; Niehues, M; Schafer, M; Zimmermann, K; Nising, CF; Gradl, SN; Nguyen, D; Eis, K; Gunther, J; Stellfeld, T; Janzer, A; Christian, S; Muller, T; Sheikh, SE; Zhou, HJ; Zhao, C; Sykes, DB; Ferrara, SJ; Liu, K; Krober, M; Merz, C; Niehues, M; Schafer, M; Zimmermann, K; Nising, CF

> <Link to Ligand in BindingDB>
http://www.bindingdb.org/bind/chemsearch/marvin/MolStructure.jsp?monomerid=470567

> <Link to Ligand-Target Pair in BindingDB>
http://www.bindingdb.org/jsp/dbsearch/PrimarySearch_ki.jsp?energyterm=kJ/mole&tag=r21&monomerid=470567&enzyme=Dihydroorotate+dehydrogenase&column=ki&startPg=0&Increment=50&submit=Search

> <PubChem CID>
134470330

> <PubChem SID>
441609743

$$$$

  Mrv2115 07222212352D          

 33 37  0  0  0  0            999 V2000
    4.0668    2.3479    0.0000 C   0  0  0  0  0  0  0  0  0  0  0  0
    3.3523    1.9354    0.0000 C   0  0  0  0  0  0  0  0  0  0  0  0
    3.3523    1.1104    0.0000 C   0  0  0  0  0  0  0  0  0  0  0  0
    2.6378    0.6979    0.0000 C   0  0  0  0  0  0  0  0  0  0  0  0
    2.6378   -0.1271    0.0000 C   0  0  0  0  0  0  0  0  0  0  0  0
    1.9233   -0.5396    0.0000 O   0  0  0  0  0  0  0  0  0  0  0  0
    3.3523   -0.5396    0.0000 O   0  0  0  0  0  0  0  0  0  0  0  0
    1.9233    1.1104    0.0000 C   0  0  0  0  0  0  0  0  0  0  0  0
    1.1387    0.8555    0.0000 N   0  0  0  0  0  0  0  0  0  0  0  0
    0.6538    1.5229    0.0000 C   0  0  0  0  0  0  0  0  0  0  0  0
   -0.1712    1.5229    0.0000 C   0  0  0  0  0  0  0  0  0  0  0  0
   -0.5837    0.8085    0.0000 C   0  0  0  0  0  0  0  0  0  0  0  0
   -1.4087    0.8085    0.0000 C   0  0  0  0  0  0  0  0  0  0  0  0
   -1.8212    1.5229    0.0000 C   0  0  0  0  0  0  0  0  0  0  0  0
   -2.6462    1.5229    0.0000 C   0  0  0  0  0  0  0  0  0  0  0  0
   -3.0587    0.8085    0.0000 C   0  0  0  0  0  0  0  0  0  0  0  0
   -3.8837    0.8085    0.0000 C   0  0  0  0  0  0  0  0  0  0  0  0
   -4.2962    1.5229    0.0000 C   0  0  0  0  0  0  0  0  0  0  0  0
   -5.1212    1.5229    0.0000 O   0  0  0  0  0  0  0  0  0  0  0  0
   -5.5337    0.8085    0.0000 C   0  0  0  0  0  0  0  0  0  0  0  0
   -6.3587    0.8085    0.0000 C   0  0  0  0  0  0  0  0  0  0  0  0
   -6.7712    0.0940    0.0000 C   0  0  0  0  0  0  0  0  0  0  0  0
   -7.5962    0.0940    0.0000 C   0  0  0  0  0  0  0  0  0  0  0  0
   -8.0087    0.8085    0.0000 C   0  0  0  0  0  0  0  0  0  0  0  0
   -7.5962    1.5229    0.0000 C   0  0  0  0  0  0  0  0  0  0  0  0
   -6.7712    1.5229    0.0000 C   0  0  0  0  0  0  0  0  0  0  0  0
   -3.8837    2.2374    0.0000 C   0  0  0  0  0  0  0  0  0  0  0  0
   -3.0587    2.2374    0.0000 C   0  0  0  0  0  0  0  0  0  0  0  0
   -1.4087    2.2374    0.0000 C   0  0  0  0  0  0  0  0  0  0  0  0
   -0.5837    2.2374    0.0000 C   0  0  0  0  0  0  0  0  0  0  0  0
    1.1387    2.1904    0.0000 N   0  0  0  0  0  0  0  0  0  0  0  0
    1.9233    1.9354    0.0000 C   0  0  0  0  0  0  0  0  0  0  0  0
    2.6378    2.3479    0.0000 C   0  0  0  0  0  0  0  0  0  0  0  0
  1  2  1  0  0  0  0
  2  3  4  0  0  0  0
  3  4  4  0  0  0  0
  4  5  1  0  0  0  0
  5  6  2  0  0  0  0
  5  7  1  0  0  0  0
  4  8  4  0  0  0  0
  8  9  4  0  0  0  0
  9 10  4  0  0  0  0
 10 11  1  0  0  0  0
 11 12  4  0  0  0  0
 12 13  4  0  0  0  0
 13 14  4  0  0  0  0
 14 15  1  0  0  0  0
 15 16  4  0  0  0  0
 16 17  4  0  0  0  0
 17 18  4  0  0  0  0
 18 19  1  0  0  0  0
 19 20  1  0  0  0  0
 20 21  1  0  0  0  0
 21 22  4  0  0  0  0
 22 23  4  0  0  0  0
 23 24  4  0  0  0  0
 24 25  4  0  0  0  0
 25 26  4  0  0  0  0
 21 26  4  0  0  0  0
 18 27  4  0  0  0  0
 27 28  4  0  0  0  0
 15 28  4  0  0  0  0
 14 29  4  0  0  0  0
 29 30  4  0  0  0  0
 11 30  4  0  0  0  0
 10 31  4  0  0  0  0
 31 32  4  0  0  0  0
  8 32  4  0  0  0  0
 32 33  4  0  0  0  0
  2 33  4  0  0  0  0
M  STY  1   1 DAT
M  SAL   1  1  31
M  SDT   1 MRV_IMPLICIT_H                                        
M  SDD   1     0.5304   -0.4125    DR    ALL  0       0  
M  SED   1 IMPL_H1
M  END
> <IC50(uM)>
1.23

> <Outcome>
0.0

> <BindingDB ID>
297845

> <BindingDB MonomerID>
155501

> <BindingDB Ligand Name>
US9006454, I143

> <Curation/DataSource>
US Patent

> <Article DOI>
?

> <PMID>
?

> <Patent Number>
US9006454

> <Authors>
Thunuguntla, SS; Subramanya, H; Kunnam, SR; Sanivaru Vijay, SR; Bingi, C; Kusanur, R; Schwarz, M; Arlt, M

> <Link to Ligand in BindingDB>
http://www.bindingdb.org/bind/chemsearch/marvin/MolStructure.jsp?monomerid=155501

> <Link to Ligand-Target Pair in BindingDB>
http://www.bindingdb.org/jsp/dbsearch/PrimarySearch_ki.jsp?energyterm=kJ/mole&tag=r21&monomerid=155501&enzyme=Dihydroorotate+dehydrogenase&column=ki&startPg=0&Increment=50&submit=Search

> <PubChem CID>
58073748

> <PubChem SID>
253658438

$$$$

  Mrv2115 07222212352D          

 27 29  0  0  0  0            999 V2000
    0.7145   -3.7125    0.0000 C   0  0  0  0  0  0  0  0  0  0  0  0
    0.7145   -2.8875    0.0000 O   0  0  0  0  0  0  0  0  0  0  0  0
    1.4289   -2.4750    0.0000 C   0  0  0  0  0  0  0  0  0  0  0  0
    2.1434   -2.8875    0.0000 O   0  0  0  0  0  0  0  0  0  0  0  0
    1.4289   -1.6500    0.0000 C   0  0  0  0  0  0  0  0  0  0  0  0
    0.7145   -1.2375    0.0000 C   0  0  0  0  0  0  0  0  0  0  0  0
    0.7145   -0.4125    0.0000 C   0  0  0  0  0  0  0  0  0  0  0  0
    1.4289    0.0000    0.0000 C   0  0  0  0  0  0  0  0  0  0  0  0
    2.1434   -0.4125    0.0000 C   0  0  0  0  0  0  0  0  0  0  0  0
    2.8579    0.0000    0.0000 C   0  0  0  0  0  0  0  0  0  0  0  0
    3.5724   -0.4125    0.0000 C   0  0  0  0  0  0  0  0  0  0  0  0
    4.2868   -0.0000    0.0000 C   0  0  0  0  0  0  0  0  0  0  0  0
    4.2868    0.8250    0.0000 C   0  0  0  0  0  0  0  0  0  0  0  0
    5.0013    1.2375    0.0000 C   0  0  0  0  0  0  0  0  0  0  0  0
    5.0013    2.0625    0.0000 C   0  0  0  0  0  0  0  0  0  0  0  0
    4.2868    2.4750    0.0000 C   0  0  0  0  0  0  0  0  0  0  0  0
    4.2868    3.3000    0.0000 O   0  0  0  0  0  0  0  0  0  0  0  0
    3.5724    2.0625    0.0000 O   0  0  0  0  0  0  0  0  0  0  0  0
    5.7158    2.4750    0.0000 N   0  0  0  0  0  0  0  0  0  0  0  0
    6.4302    2.0625    0.0000 C   0  0  0  0  0  0  0  0  0  0  0  0
    7.1447    2.4750    0.0000 O   0  0  0  0  0  0  0  0  0  0  0  0
    6.4302    1.2375    0.0000 N   0  0  0  0  0  0  0  0  0  0  0  0
    5.7158    0.8250    0.0000 C   0  0  0  0  0  0  0  0  0  0  0  0
    5.7158   -0.0000    0.0000 O   0  0  0  0  0  0  0  0  0  0  0  0
    3.5724   -1.2375    0.0000 C   0  0  0  0  0  0  0  0  0  0  0  0
    2.8579   -1.6500    0.0000 C   0  0  0  0  0  0  0  0  0  0  0  0
    2.1434   -1.2375    0.0000 C   0  0  0  0  0  0  0  0  0  0  0  0
  1  2  1  0  0  0  0
  2  3  1  0  0  0  0
  3  4  2  0  0  0  0
  3  5  1  0  0  0  0
  5  6  4  0  0  0  0
  6  7  4  0  0  0  0
  7  8  4  0  0  0  0
  8  9  4  0  0  0  0
  9 10  4  0  0  0  0
 10 11  4  0  0  0  0
 11 12  1  0  0  0  0
 12 13  1  0  0  0  0
 13 14  1  0  0  0  0
 14 15  4  0  0  0  0
 15 16  1  0  0  0  0
 16 17  2  0  0  0  0
 16 18  1  0  0  0  0
 15 19  4  0  0  0  0
 19 20  4  0  0  0  0
 20 21  2  0  0  0  0
 20 22  4  0  0  0  0
 22 23  4  0  0  0  0
 14 23  4  0  0  0  0
 23 24  2  0  0  0  0
 11 25  4  0  0  0  0
 25 26  4  0  0  0  0
 26 27  4  0  0  0  0
  5 27  4  0  0  0  0
  9 27  4  0  0  0  0
M  STY  2   1 DAT   2 DAT
M  SAL   1  1  19
M  SDT   1 MRV_IMPLICIT_H                                        
M  SDD   1     0.6482   -0.4125    DR    ALL  0       0  
M  SED   1 IMPL_H1
M  SAL   2  1  22
M  SDT   2 MRV_IMPLICIT_H                                        
M  SDD   2     0.5304   -0.4125    DR    ALL  0       0  
M  SED   2 IMPL_H1
M  END
> <IC50(uM)>
0.044

> <Outcome>
1.0

> <BindingDB ID>
50555219

> <BindingDB MonomerID>
50211695

> <BindingDB Ligand Name>
CHEMBL3933268

> <Curation/DataSource>
ChEMBL

> <Article DOI>
10.1016/j.bmc.2017.01.009

> <PMID>
28118956

> <Patent Number>
?

> <Authors>
Inaoka, DK; Iida, M; Hashimoto, S; Tabuchi, T; Kuranaga, T; Balogun, EO; Honma, T; Tanaka, A; Harada, S; Nara, T; Kita, K; Inoue, M

> <Link to Ligand in BindingDB>
http://www.bindingdb.org/bind/chemsearch/marvin/MolStructure.jsp?monomerid=50211695

> <Link to Ligand-Target Pair in BindingDB>
http://www.bindingdb.org/jsp/dbsearch/PrimarySearch_ki.jsp?energyterm=kJ/mole&tag=r21&monomerid=50211695&enzyme=Dihydroorotate+dehydrogenase&column=ki&startPg=0&Increment=50&submit=Search

> <PubChem CID>
134138701

> <PubChem SID>
375983038

$$$$

  Mrv2115 07222212352D          

 20 21  0  0  0  0            999 V2000
    1.4289   -1.6500    0.0000 C   0  0  0  0  0  0  0  0  0  0  0  0
    1.4289   -2.4750    0.0000 C   0  0  0  0  0  0  0  0  0  0  0  0
    2.0964   -2.9599    0.0000 N   0  0  0  0  0  0  0  0  0  0  0  0
    1.8414   -3.7445    0.0000 N   0  0  0  0  0  0  0  0  0  0  0  0
    1.0164   -3.7445    0.0000 C   0  0  0  0  0  0  0  0  0  0  0  0
    0.5315   -4.4120    0.0000 N   0  0  0  0  0  0  0  0  0  0  0  0
    0.8671   -5.1657    0.0000 C   0  0  0  0  0  0  0  0  0  0  0  0
    0.3822   -5.8331    0.0000 C   0  0  0  0  0  0  0  0  0  0  0  0
    0.7177   -6.5868    0.0000 C   0  0  0  0  0  0  0  0  0  0  0  0
    0.2328   -7.2542    0.0000 C   0  0  0  0  0  0  0  0  0  0  0  0
   -0.5877   -7.1680    0.0000 C   0  0  0  0  0  0  0  0  0  0  0  0
   -1.0726   -7.8354    0.0000 C   0  0  0  0  0  0  0  0  0  0  0  0
   -1.5575   -8.5029    0.0000 F   0  0  0  0  0  0  0  0  0  0  0  0
   -1.7401   -7.3505    0.0000 F   0  0  0  0  0  0  0  0  0  0  0  0
   -0.4052   -8.3203    0.0000 F   0  0  0  0  0  0  0  0  0  0  0  0
   -0.9232   -6.4143    0.0000 C   0  0  0  0  0  0  0  0  0  0  0  0
   -0.4383   -5.7469    0.0000 C   0  0  0  0  0  0  0  0  0  0  0  0
    0.7615   -2.9599    0.0000 C   0  0  0  0  0  0  0  0  0  0  0  0
   -0.0231   -2.7050    0.0000 C   0  0  0  0  0  0  0  0  0  0  0  0
   -0.8077   -2.4500    0.0000 N   0  0  0  0  0  0  0  0  0  0  0  0
  1  2  1  0  0  0  0
  2  3  4  0  0  0  0
  3  4  4  0  0  0  0
  4  5  4  0  0  0  0
  5  6  1  0  0  0  0
  6  7  1  0  0  0  0
  7  8  1  0  0  0  0
  8  9  4  0  0  0  0
  9 10  4  0  0  0  0
 10 11  4  0  0  0  0
 11 12  1  0  0  0  0
 12 13  1  0  0  0  0
 12 14  1  0  0  0  0
 12 15  1  0  0  0  0
 11 16  4  0  0  0  0
 16 17  4  0  0  0  0
  8 17  4  0  0  0  0
  5 18  4  0  0  0  0
  2 18  4  0  0  0  0
 18 19  1  0  0  0  0
 19 20  3  0  0  0  0
M  STY  1   1 DAT
M  SAL   1  1   4
M  SDT   1 MRV_IMPLICIT_H                                        
M  SDD   1     0.5304   -0.4125    DR    ALL  0       0  
M  SED   1 IMPL_H1
M  END
> <IC50(uM)>
50.0

> <Outcome>
0.0

> <BindingDB ID>
50786785

> <BindingDB MonomerID>
50066581

> <BindingDB Ligand Name>
5-Methyl-3-(4-trifluoromethyl-benzylamino)-1H-pyrazole-4-carbonitrile::CHEMBL331399

> <Curation/DataSource>
ChEMBL

> <Article DOI>
10.1021/jm981028c

> <PMID>
9719606

> <Patent Number>
?

> <Authors>
Papageorgiou, C; Albert, R; Floersheim, P; Lemaire, M; Bitch, F; Weber, HP; Andersen, E; Hungerford, V; Schreier, MH

> <Link to Ligand in BindingDB>
http://www.bindingdb.org/bind/chemsearch/marvin/MolStructure.jsp?monomerid=50066581

> <Link to Ligand-Target Pair in BindingDB>
http://www.bindingdb.org/jsp/dbsearch/PrimarySearch_ki.jsp?energyterm=kJ/mole&tag=r21&monomerid=50066581&enzyme=Dihydroorotate+dehydrogenase&column=ki&startPg=0&Increment=50&submit=Search

> <PubChem CID>
10755169

> <PubChem SID>
103961201

$$$$

  Mrv2115 07222212352D          

 26 29  0  0  0  0            999 V2000
    1.8500    2.0625    0.0000 O   0  0  0  0  0  0  0  0  0  0  0  0
    2.5645    2.4750    0.0000 C   0  0  0  0  0  0  0  0  0  0  0  0
    3.2789    2.0625    0.0000 N   0  0  0  0  0  0  0  0  0  0  0  0
    3.2789    1.2375    0.0000 C   0  0  0  0  0  0  0  0  0  0  0  0
    3.9934    0.8250    0.0000 C   0  0  0  0  0  0  0  0  0  0  0  0
    3.9934    0.0000    0.0000 C   0  0  0  0  0  0  0  0  0  0  0  0
    3.2789   -0.4125    0.0000 C   0  0  0  0  0  0  0  0  0  0  0  0
    2.5645    0.0000    0.0000 C   0  0  0  0  0  0  0  0  0  0  0  0
    2.5645    0.8250    0.0000 C   0  0  0  0  0  0  0  0  0  0  0  0
    1.7798    1.0799    0.0000 C   0  0  0  0  0  0  0  0  0  0  0  0
    1.2949    0.4125    0.0000 N   0  0  0  0  0  0  0  0  0  0  0  0
    1.7798   -0.2549    0.0000 N   0  0  0  0  0  0  0  0  0  0  0  0
    1.5249   -1.0396    0.0000 C   0  0  0  0  0  0  0  0  0  0  0  0
    2.0769   -1.6527    0.0000 C   0  0  0  0  0  0  0  0  0  0  0  0
    1.8220   -2.4373    0.0000 C   0  0  0  0  0  0  0  0  0  0  0  0
    1.0150   -2.6088    0.0000 C   0  0  0  0  0  0  0  0  0  0  0  0
    0.4630   -1.9957    0.0000 C   0  0  0  0  0  0  0  0  0  0  0  0
    0.7179   -1.2111    0.0000 C   0  0  0  0  0  0  0  0  0  0  0  0
    0.1659   -0.5980    0.0000 F   0  0  0  0  0  0  0  0  0  0  0  0
    2.5645    3.3000    0.0000 C   0  0  0  0  0  0  0  0  0  0  0  0
    1.8500    3.7125    0.0000 C   0  0  0  0  0  0  0  0  0  0  0  0
    1.8500    4.5375    0.0000 C   0  0  0  0  0  0  0  0  0  0  0  0
    1.1355    4.9500    0.0000 Br  0  0  0  0  0  0  0  0  0  0  0  0
    2.5645    4.9500    0.0000 C   0  0  0  0  0  0  0  0  0  0  0  0
    3.2789    4.5375    0.0000 C   0  0  0  0  0  0  0  0  0  0  0  0
    3.2789    3.7125    0.0000 N   0  0  0  0  0  0  0  0  0  0  0  0
  1  2  2  0  0  0  0
  2  3  1  0  0  0  0
  3  4  1  0  0  0  0
  4  5  1  0  0  0  0
  5  6  1  0  0  0  0
  6  7  1  0  0  0  0
  7  8  1  0  0  0  0
  8  9  4  0  0  0  0
  4  9  1  0  0  0  0
  9 10  4  0  0  0  0
 10 11  4  0  0  0  0
 11 12  4  0  0  0  0
  8 12  4  0  0  0  0
 12 13  1  0  0  0  0
 13 14  4  0  0  0  0
 14 15  4  0  0  0  0
 15 16  4  0  0  0  0
 16 17  4  0  0  0  0
 17 18  4  0  0  0  0
 13 18  4  0  0  0  0
 18 19  1  0  0  0  0
  2 20  1  0  0  0  0
 20 21  4  0  0  0  0
 21 22  4  0  0  0  0
 22 23  1  0  0  0  0
 22 24  4  0  0  0  0
 24 25  4  0  0  0  0
 25 26  4  0  0  0  0
 20 26  4  0  0  0  0
M  END
> <IC50(uM)>
0.0325

> <Outcome>
1.0

> <BindingDB ID>
51334946; 993105

> <BindingDB MonomerID>
477607

> <BindingDB Ligand Name>
4-bromo-N-[(4R)-1-(2-fluorophenyl)-4,5,6,7-tetrahydro-1H-indazol-4-yl]pyridine-2-carboxamide::US10889564, Example 37

> <Curation/DataSource>
ChEMBL; US Patent

> <Article DOI>
10.1021/acs.jmedchem.9b01658; ?

> <PMID>
32212728; ?

> <Patent Number>
?; US10889564

> <Authors>
Popova, G; Ladds, MJGW; Johansson, L; Saleh, A; Larsson, J; Sandberg, L; Sahlberg, SH; Qian, W; Gullberg, H; Garg, N; Gustavsson, AL; Haraldsson, M; Lane, D; Yngve, U; Lain, S; Lain, S; Drummond, C; Leeuwen, IV; Haraldsson, M; Johansson, L; Sandberg, L; Yngve, U

> <Link to Ligand in BindingDB>
http://www.bindingdb.org/bind/chemsearch/marvin/MolStructure.jsp?monomerid=477607

> <Link to Ligand-Target Pair in BindingDB>
http://www.bindingdb.org/jsp/dbsearch/PrimarySearch_ki.jsp?energyterm=kJ/mole&tag=r21&monomerid=477607&enzyme=Dihydroorotate+dehydrogenase&column=ki&startPg=0&Increment=50&submit=Search

> <PubChem CID>
129104746

> <PubChem SID>
442137224

$$$$

  Mrv2115 07222212352D          

 25 26  0  0  0  0            999 V2000
   -1.4289   -4.9500    0.0000 C   0  0  0  0  0  0  0  0  0  0  0  0
   -1.4289   -4.1250    0.0000 O   0  0  0  0  0  0  0  0  0  0  0  0
   -0.7145   -3.7125    0.0000 C   0  0  0  0  0  0  0  0  0  0  0  0
    0.0000   -4.1250    0.0000 O   0  0  0  0  0  0  0  0  0  0  0  0
   -0.7145   -2.8875    0.0000 C   0  0  0  0  0  0  0  0  0  0  0  0
   -1.4289   -2.4750    0.0000 C   0  0  0  0  0  0  0  0  0  0  0  0
   -1.4289   -1.6500    0.0000 C   0  0  0  0  0  0  0  0  0  0  0  0
   -0.7145   -1.2375    0.0000 C   0  0  0  0  0  0  0  0  0  0  0  0
    0.0000   -1.6500    0.0000 C   0  0  0  0  0  0  0  0  0  0  0  0
    0.0000   -2.4750    0.0000 C   0  0  0  0  0  0  0  0  0  0  0  0
    0.7145   -2.8875    0.0000 C   0  0  0  0  0  0  0  0  0  0  0  0
    1.4289   -2.4750    0.0000 C   0  0  0  0  0  0  0  0  0  0  0  0
    2.1434   -2.8875    0.0000 C   0  0  0  0  0  0  0  0  0  0  0  0
    2.8579   -2.4750    0.0000 C   0  0  0  0  0  0  0  0  0  0  0  0
    3.5724   -2.8875    0.0000 C   0  0  0  0  0  0  0  0  0  0  0  0
    4.2868   -2.4750    0.0000 C   0  0  0  0  0  0  0  0  0  0  0  0
    4.2868   -1.6500    0.0000 C   0  0  0  0  0  0  0  0  0  0  0  0
    5.0013   -1.2375    0.0000 O   0  0  0  0  0  0  0  0  0  0  0  0
    3.5724   -1.2375    0.0000 O   0  0  0  0  0  0  0  0  0  0  0  0
    5.0013   -2.8875    0.0000 N   0  0  0  0  0  0  0  0  0  0  0  0
    5.0013   -3.7125    0.0000 C   0  0  0  0  0  0  0  0  0  0  0  0
    5.7158   -4.1250    0.0000 O   0  0  0  0  0  0  0  0  0  0  0  0
    4.2868   -4.1250    0.0000 N   0  0  0  0  0  0  0  0  0  0  0  0
    3.5724   -3.7125    0.0000 C   0  0  0  0  0  0  0  0  0  0  0  0
    2.8579   -4.1250    0.0000 O   0  0  0  0  0  0  0  0  0  0  0  0
  1  2  1  0  0  0  0
  2  3  1  0  0  0  0
  3  4  2  0  0  0  0
  3  5  1  0  0  0  0
  5  6  4  0  0  0  0
  6  7  4  0  0  0  0
  7  8  4  0  0  0  0
  8  9  4  0  0  0  0
  9 10  4  0  0  0  0
  5 10  4  0  0  0  0
 10 11  1  0  0  0  0
 11 12  1  0  0  0  0
 12 13  1  0  0  0  0
 13 14  1  0  0  0  0
 14 15  1  0  0  0  0
 15 16  4  0  0  0  0
 16 17  1  0  0  0  0
 17 18  2  0  0  0  0
 17 19  1  0  0  0  0
 16 20  4  0  0  0  0
 20 21  4  0  0  0  0
 21 22  2  0  0  0  0
 21 23  4  0  0  0  0
 23 24  4  0  0  0  0
 15 24  4  0  0  0  0
 24 25  2  0  0  0  0
M  STY  2   1 DAT   2 DAT
M  SAL   1  1  20
M  SDT   1 MRV_IMPLICIT_H                                        
M  SDD   1     0.5304   -0.4125    DR    ALL  0       0  
M  SED   1 IMPL_H1
M  SAL   2  1  23
M  SDT   2 MRV_IMPLICIT_H                                        
M  SDD   2     0.6482   -0.4125    DR    ALL  0       0  
M  SED   2 IMPL_H1
M  END
> <IC50(uM)>
0.204

> <Outcome>
1.0

> <BindingDB ID>
50555220

> <BindingDB MonomerID>
50211696

> <BindingDB Ligand Name>
CHEMBL3956130

> <Curation/DataSource>
ChEMBL

> <Article DOI>
10.1016/j.bmc.2017.01.009

> <PMID>
28118956

> <Patent Number>
?

> <Authors>
Inaoka, DK; Iida, M; Hashimoto, S; Tabuchi, T; Kuranaga, T; Balogun, EO; Honma, T; Tanaka, A; Harada, S; Nara, T; Kita, K; Inoue, M

> <Link to Ligand in BindingDB>
http://www.bindingdb.org/bind/chemsearch/marvin/MolStructure.jsp?monomerid=50211696

> <Link to Ligand-Target Pair in BindingDB>
http://www.bindingdb.org/jsp/dbsearch/PrimarySearch_ki.jsp?energyterm=kJ/mole&tag=r21&monomerid=50211696&enzyme=Dihydroorotate+dehydrogenase&column=ki&startPg=0&Increment=50&submit=Search

> <PubChem CID>
134144166

> <PubChem SID>
375983039

$$$$

  Mrv2115 07222212352D          

 19 19  0  0  0  0            999 V2000
    0.0000   -2.4750    0.0000 C   0  0  0  0  0  0  0  0  0  0  0  0
    0.7145   -2.8875    0.0000 C   0  0  0  0  0  0  0  0  0  0  0  0
    0.7145   -3.7125    0.0000 O   0  0  0  0  0  0  0  0  0  0  0  0
    1.4289   -2.4750    0.0000 C   0  0  0  0  0  0  0  0  0  0  0  0
    1.4289   -1.6500    0.0000 C   0  0  0  0  0  0  0  0  0  0  0  0
    1.4289   -0.8250    0.0000 N   0  0  0  0  0  0  0  0  0  0  0  0
    2.1434   -2.8875    0.0000 C   0  0  0  0  0  0  0  0  0  0  0  0
    2.1434   -3.7125    0.0000 S   0  0  0  0  0  0  0  0  0  0  0  0
    2.8579   -2.4750    0.0000 N   0  0  0  0  0  0  0  0  0  0  0  0
    3.5724   -2.8875    0.0000 C   0  0  0  0  0  0  0  0  0  0  0  0
    4.2868   -2.4750    0.0000 C   0  0  0  0  0  0  0  0  0  0  0  0
    5.0013   -2.8875    0.0000 C   0  0  0  0  0  0  0  0  0  0  0  0
    5.0013   -3.7125    0.0000 C   0  0  0  0  0  0  0  0  0  0  0  0
    5.7158   -4.1250    0.0000 C   0  0  0  0  0  0  0  0  0  0  0  0
    6.4302   -4.5375    0.0000 F   0  0  0  0  0  0  0  0  0  0  0  0
    5.3033   -4.8395    0.0000 F   0  0  0  0  0  0  0  0  0  0  0  0
    6.1283   -3.4105    0.0000 F   0  0  0  0  0  0  0  0  0  0  0  0
    4.2868   -4.1250    0.0000 C   0  0  0  0  0  0  0  0  0  0  0  0
    3.5724   -3.7125    0.0000 C   0  0  0  0  0  0  0  0  0  0  0  0
  1  2  1  0  0  0  0
  2  3  2  0  0  0  0
  2  4  1  0  0  0  0
  4  5  1  0  0  0  0
  5  6  3  0  0  0  0
  4  7  1  0  0  0  0
  7  8  2  0  0  0  0
  7  9  1  0  0  0  0
  9 10  1  0  0  0  0
 10 11  4  0  0  0  0
 11 12  4  0  0  0  0
 12 13  4  0  0  0  0
 13 14  1  0  0  0  0
 14 15  1  0  0  0  0
 14 16  1  0  0  0  0
 14 17  1  0  0  0  0
 13 18  4  0  0  0  0
 18 19  4  0  0  0  0
 10 19  4  0  0  0  0
M  END
> <IC50(uM)>
0.8

> <Outcome>
1.0

> <BindingDB ID>
50123314

> <BindingDB MonomerID>
50071392

> <BindingDB Ligand Name>
(E)-2-Cyano-3-hydroxy-but-2-enethioic acid (4-trifluoromethyl-phenyl)-amide::CHEMBL70544

> <Curation/DataSource>
ChEMBL

> <Article DOI>
10.1016/s0960-894x(98)00365-5

> <PMID>
9873513

> <Patent Number>
?

> <Authors>
Albert, R; Knecht, H; Andersen, E; Hungerford, V; Schreier, MH; Papageorgiou, C

> <Link to Ligand in BindingDB>
http://www.bindingdb.org/bind/chemsearch/marvin/MolStructure.jsp?monomerid=50071392

> <Link to Ligand-Target Pair in BindingDB>
http://www.bindingdb.org/jsp/dbsearch/PrimarySearch_ki.jsp?energyterm=kJ/mole&tag=r21&monomerid=50071392&enzyme=Dihydroorotate+dehydrogenase&column=ki&startPg=0&Increment=50&submit=Search

> <PubChem CID>
53734502

> <PubChem SID>
103965146

$$$$

  Mrv2115 07222212352D          

 35 39  0  0  0  0            999 V2000
   -5.3959   -2.8645    0.0000 C   0  0  0  0  0  0  0  0  0  0  0  0
   -5.6509   -2.0799    0.0000 C   0  0  0  0  0  0  0  0  0  0  0  0
   -6.4355   -1.8249    0.0000 O   0  0  0  0  0  0  0  0  0  0  0  0
   -6.4355   -0.9999    0.0000 N   0  0  0  0  0  0  0  0  0  0  0  0
   -5.6509   -0.7450    0.0000 C   0  0  0  0  0  0  0  0  0  0  0  0
   -5.1659   -1.4124    0.0000 C   0  0  0  0  0  0  0  0  0  0  0  0
   -4.3409   -1.4124    0.0000 N   0  0  0  0  0  0  0  0  0  0  0  0
   -3.9284   -0.6979    0.0000 C   0  0  0  0  0  0  0  0  0  0  0  0
   -4.3409    0.0165    0.0000 O   0  0  0  0  0  0  0  0  0  0  0  0
   -3.1034   -0.6979    0.0000 C   0  0  0  0  0  0  0  0  0  0  0  0
   -2.6909    0.0165    0.0000 C   0  0  0  0  0  0  0  0  0  0  0  0
   -1.8659    0.0165    0.0000 C   0  0  0  0  0  0  0  0  0  0  0  0
   -1.4534    0.7310    0.0000 F   0  0  0  0  0  0  0  0  0  0  0  0
   -1.4534   -0.6979    0.0000 C   0  0  0  0  0  0  0  0  0  0  0  0
   -0.6284   -0.6979    0.0000 N   0  0  0  0  0  0  0  0  0  0  0  0
   -0.1435   -1.3654    0.0000 N   0  0  0  0  0  0  0  0  0  0  0  0
    0.6411   -1.1104    0.0000 C   0  0  0  0  0  0  0  0  0  0  0  0
    0.6411   -0.2854    0.0000 N   0  0  0  0  0  0  0  0  0  0  0  0
   -0.1435   -0.0305    0.0000 C   0  0  0  0  0  0  0  0  0  0  0  0
   -0.3984    0.7541    0.0000 O   0  0  0  0  0  0  0  0  0  0  0  0
    1.3556    0.1271    0.0000 C   0  0  0  0  0  0  0  0  0  0  0  0
    2.0701   -0.2854    0.0000 C   0  0  0  0  0  0  0  0  0  0  0  0
    2.0701   -1.1104    0.0000 C   0  0  0  0  0  0  0  0  0  0  0  0
    1.3556   -1.5229    0.0000 C   0  0  0  0  0  0  0  0  0  0  0  0
   -1.8659   -1.4124    0.0000 C   0  0  0  0  0  0  0  0  0  0  0  0
   -2.6909   -1.4124    0.0000 C   0  0  0  0  0  0  0  0  0  0  0  0
   -3.1034   -2.1269    0.0000 O   0  0  0  0  0  0  0  0  0  0  0  0
   -2.6909   -2.8414    0.0000 C   0  0  0  0  0  0  0  0  0  0  0  0
   -1.8659   -2.8414    0.0000 C   0  0  0  0  0  0  0  0  0  0  0  0
   -3.1034   -3.5558    0.0000 C   0  0  0  0  0  0  0  0  0  0  0  0
   -2.6909   -4.2703    0.0000 C   0  0  0  0  0  0  0  0  0  0  0  0
   -3.1034   -4.9848    0.0000 C   0  0  0  0  0  0  0  0  0  0  0  0
   -3.9284   -4.9848    0.0000 C   0  0  0  0  0  0  0  0  0  0  0  0
   -4.3409   -4.2703    0.0000 C   0  0  0  0  0  0  0  0  0  0  0  0
   -3.9284   -3.5558    0.0000 C   0  0  0  0  0  0  0  0  0  0  0  0
  1  2  1  0  0  0  0
  2  3  4  0  0  0  0
  3  4  4  0  0  0  0
  4  5  4  0  0  0  0
  5  6  4  0  0  0  0
  2  6  4  0  0  0  0
  6  7  1  0  0  0  0
  7  8  1  0  0  0  0
  8  9  2  0  0  0  0
  8 10  1  0  0  0  0
 10 11  4  0  0  0  0
 11 12  4  0  0  0  0
 12 13  1  0  0  0  0
 12 14  4  0  0  0  0
 14 15  1  0  0  0  0
 15 16  4  0  0  0  0
 16 17  4  0  0  0  0
 17 18  4  0  0  0  0
 18 19  4  0  0  0  0
 15 19  4  0  0  0  0
 19 20  2  0  0  0  0
 18 21  1  0  0  0  0
 21 22  1  0  0  0  0
 22 23  1  0  0  0  0
 23 24  1  0  0  0  0
 17 24  1  0  0  0  0
 14 25  4  0  0  0  0
 25 26  4  0  0  0  0
 10 26  4  0  0  0  0
 26 27  1  0  0  0  0
 27 28  1  0  0  0  0
 28 29  1  0  0  0  0
 28 30  1  0  0  0  0
 30 31  1  0  0  0  0
 31 32  1  0  0  0  0
 32 33  1  0  0  0  0
 33 34  1  0  0  0  0
 34 35  1  0  0  0  0
 30 35  1  0  0  0  0
M  END
> <IC50(uM)>
0.041

> <Outcome>
1.0

> <BindingDB ID>
1020571

> <BindingDB MonomerID>
490510

> <BindingDB Ligand Name>
2-[(1S)-1-cyclohexylethoxy]-5-fluoro-N-(5-methyl-1,2-oxazol-4-yl)-4-(3-oxo-5,6,7,8-tetrahydro-[1,2,4]triazolo[4,3-a]pyridin-2(3H)-yl)benzamide::US10968216, Example 178

> <Curation/DataSource>
US Patent

> <Article DOI>
?

> <PMID>
?

> <Patent Number>
US10968216

> <Authors>
Gradl, SN; Nguyen, D; Eis, K; Gunther, J; Stellfeld, T; Janzer, A; Christian, S; Mueller, T; Sheikh, SE; Zhou, HJ; Zhao, C; Sykes, DB; Ferrara, SJ; Liu, K; Herbert, SA; Merz, C; Niehues, M; Nising, CF; Schafer, M; Zimmermann, K; Knablein, J; Thede, K; Faupel, T

> <Link to Ligand in BindingDB>
http://www.bindingdb.org/bind/chemsearch/marvin/MolStructure.jsp?monomerid=490510

> <Link to Ligand-Target Pair in BindingDB>
http://www.bindingdb.org/jsp/dbsearch/PrimarySearch_ki.jsp?energyterm=kJ/mole&tag=r21&monomerid=490510&enzyme=Dihydroorotate+dehydrogenase&column=ki&startPg=0&Increment=50&submit=Search

> <PubChem CID>
142335855

> <PubChem SID>
447117237

$$$$

  Mrv2115 07222212352D          

 40 44  0  0  0  0            999 V2000
   -5.1659   -2.8414    0.0000 C   0  0  0  0  0  0  0  0  0  0  0  0
   -5.5784   -2.1269    0.0000 C   0  0  0  0  0  0  0  0  0  0  0  0
   -6.4034   -2.1269    0.0000 C   0  0  0  0  0  0  0  0  0  0  0  0
   -6.8159   -1.4124    0.0000 C   0  0  0  0  0  0  0  0  0  0  0  0
   -7.6409   -1.4124    0.0000 S   0  0  0  0  0  0  0  0  0  0  0  0
   -8.4659   -1.4124    0.0000 N   0  0  0  0  0  0  0  0  0  0  0  0
   -7.6409   -2.2374    0.0000 O   0  0  0  0  0  0  0  0  0  0  0  0
   -7.6409   -0.5874    0.0000 O   0  0  0  0  0  0  0  0  0  0  0  0
   -6.4034   -0.6979    0.0000 C   0  0  0  0  0  0  0  0  0  0  0  0
   -5.5784   -0.6979    0.0000 C   0  0  0  0  0  0  0  0  0  0  0  0
   -5.1659   -1.4124    0.0000 C   0  0  0  0  0  0  0  0  0  0  0  0
   -4.3409   -1.4124    0.0000 N   0  0  0  0  0  0  0  0  0  0  0  0
   -3.9284   -0.6979    0.0000 C   0  0  0  0  0  0  0  0  0  0  0  0
   -4.3409    0.0165    0.0000 O   0  0  0  0  0  0  0  0  0  0  0  0
   -3.1034   -0.6979    0.0000 C   0  0  0  0  0  0  0  0  0  0  0  0
   -2.6909    0.0165    0.0000 C   0  0  0  0  0  0  0  0  0  0  0  0
   -1.8659    0.0165    0.0000 C   0  0  0  0  0  0  0  0  0  0  0  0
   -1.4534    0.7310    0.0000 F   0  0  0  0  0  0  0  0  0  0  0  0
   -1.4534   -0.6979    0.0000 C   0  0  0  0  0  0  0  0  0  0  0  0
   -0.6284   -0.6979    0.0000 N   0  0  0  0  0  0  0  0  0  0  0  0
   -0.1435   -1.3654    0.0000 N   0  0  0  0  0  0  0  0  0  0  0  0
    0.6411   -1.1104    0.0000 C   0  0  0  0  0  0  0  0  0  0  0  0
    0.6411   -0.2854    0.0000 N   0  0  0  0  0  0  0  0  0  0  0  0
   -0.1435   -0.0305    0.0000 C   0  0  0  0  0  0  0  0  0  0  0  0
   -0.3984    0.7541    0.0000 O   0  0  0  0  0  0  0  0  0  0  0  0
    1.3556    0.1271    0.0000 C   0  0  0  0  0  0  0  0  0  0  0  0
    2.0701   -0.2854    0.0000 C   0  0  0  0  0  0  0  0  0  0  0  0
    2.0701   -1.1104    0.0000 C   0  0  0  0  0  0  0  0  0  0  0  0
    1.3556   -1.5229    0.0000 C   0  0  0  0  0  0  0  0  0  0  0  0
   -1.8659   -1.4124    0.0000 C   0  0  0  0  0  0  0  0  0  0  0  0
   -2.6909   -1.4124    0.0000 C   0  0  0  0  0  0  0  0  0  0  0  0
   -3.1034   -2.1269    0.0000 O   0  0  0  0  0  0  0  0  0  0  0  0
   -2.6909   -2.8414    0.0000 C   0  0  0  0  0  0  0  0  0  0  0  0
   -1.8659   -2.8414    0.0000 C   0  0  0  0  0  0  0  0  0  0  0  0
   -3.1034   -3.5558    0.0000 C   0  0  0  0  0  0  0  0  0  0  0  0
   -2.6909   -4.2703    0.0000 C   0  0  0  0  0  0  0  0  0  0  0  0
   -3.1034   -4.9848    0.0000 C   0  0  0  0  0  0  0  0  0  0  0  0
   -3.9284   -4.9848    0.0000 C   0  0  0  0  0  0  0  0  0  0  0  0
   -4.3409   -4.2703    0.0000 C   0  0  0  0  0  0  0  0  0  0  0  0
   -3.9284   -3.5558    0.0000 C   0  0  0  0  0  0  0  0  0  0  0  0
  1  2  1  0  0  0  0
  2  3  4  0  0  0  0
  3  4  4  0  0  0  0
  4  5  1  0  0  0  0
  5  6  1  0  0  0  0
  5  7  2  0  0  0  0
  5  8  2  0  0  0  0
  4  9  4  0  0  0  0
  9 10  4  0  0  0  0
 10 11  4  0  0  0  0
  2 11  4  0  0  0  0
 11 12  1  0  0  0  0
 12 13  1  0  0  0  0
 13 14  2  0  0  0  0
 13 15  1  0  0  0  0
 15 16  4  0  0  0  0
 16 17  4  0  0  0  0
 17 18  1  0  0  0  0
 17 19  4  0  0  0  0
 19 20  1  0  0  0  0
 20 21  4  0  0  0  0
 21 22  4  0  0  0  0
 22 23  4  0  0  0  0
 23 24  4  0  0  0  0
 20 24  4  0  0  0  0
 24 25  2  0  0  0  0
 23 26  1  0  0  0  0
 26 27  1  0  0  0  0
 27 28  1  0  0  0  0
 28 29  1  0  0  0  0
 22 29  1  0  0  0  0
 19 30  4  0  0  0  0
 30 31  4  0  0  0  0
 15 31  4  0  0  0  0
 31 32  1  0  0  0  0
 32 33  1  0  0  0  0
 33 34  1  0  0  0  0
 33 35  1  0  0  0  0
 35 36  1  0  0  0  0
 36 37  1  0  0  0  0
 37 38  1  0  0  0  0
 38 39  1  0  0  0  0
 39 40  1  0  0  0  0
 35 40  1  0  0  0  0
M  END
> <IC50(uM)>
0.07835

> <Outcome>
1.0

> <BindingDB ID>
1020526; 1020527

> <BindingDB MonomerID>
490473

> <BindingDB Ligand Name>
2-[(1S)-1-cyclohexylethoxy]-5-fluoro-N-(2-methyl-4-sulfamoylphenyl)-4-(3-oxo-5,6,7,8-tetrahydro[1,2,4]triazolo[4,3-a]pyridin-2(3H)-yl)benzamide::US10968216, Example 141

> <Curation/DataSource>
US Patent

> <Article DOI>
?

> <PMID>
?

> <Patent Number>
US10968216

> <Authors>
Gradl, SN; Nguyen, D; Eis, K; Gunther, J; Stellfeld, T; Janzer, A; Christian, S; Mueller, T; Sheikh, SE; Zhou, HJ; Zhao, C; Sykes, DB; Ferrara, SJ; Liu, K; Herbert, SA; Merz, C; Niehues, M; Nising, CF; Schafer, M; Zimmermann, K; Knablein, J; Thede, K; Faupel, T

> <Link to Ligand in BindingDB>
http://www.bindingdb.org/bind/chemsearch/marvin/MolStructure.jsp?monomerid=490473

> <Link to Ligand-Target Pair in BindingDB>
http://www.bindingdb.org/jsp/dbsearch/PrimarySearch_ki.jsp?energyterm=kJ/mole&tag=r21&monomerid=490473&enzyme=Dihydroorotate+dehydrogenase&column=ki&startPg=0&Increment=50&submit=Search

> <PubChem CID>
134473958

> <PubChem SID>
447117200

$$$$

  Mrv2115 07222212352D          

 34 36  0  0  0  0            999 V2000
    2.1434   -3.7125    0.0000 C   0  0  0  0  0  0  0  0  0  0  0  0
    2.8579   -4.1250    0.0000 C   0  0  0  0  0  0  0  0  0  0  0  0
    3.5724   -3.7125    0.0000 C   0  0  0  0  0  0  0  0  0  0  0  0
    4.2868   -4.1250    0.0000 C   0  0  0  0  0  0  0  0  0  0  0  0
    4.2868   -4.9500    0.0000 C   0  0  0  0  0  0  0  0  0  0  0  0
    5.0013   -3.7125    0.0000 O   0  0  0  0  0  0  0  0  0  0  0  0
    5.0013   -2.8875    0.0000 C   0  0  0  0  0  0  0  0  0  0  0  0
    4.2868   -2.4750    0.0000 C   0  0  0  0  0  0  0  0  0  0  0  0
    4.2868   -1.6500    0.0000 C   0  0  0  0  0  0  0  0  0  0  0  0
    3.5724   -1.2375    0.0000 N   0  0  0  0  0  0  0  0  0  0  0  0
    2.8187   -1.5731    0.0000 N   0  0  0  0  0  0  0  0  0  0  0  0
    2.2666   -0.9600    0.0000 C   0  0  0  0  0  0  0  0  0  0  0  0
    1.4462   -1.0462    0.0000 C   0  0  0  0  0  0  0  0  0  0  0  0
    1.1106   -1.7999    0.0000 C   0  0  0  0  0  0  0  0  0  0  0  0
    2.6791   -0.2455    0.0000 N   0  0  0  0  0  0  0  0  0  0  0  0
    2.3436    0.5082    0.0000 C   0  0  0  0  0  0  0  0  0  0  0  0
    3.4861   -0.4170    0.0000 C   0  0  0  0  0  0  0  0  0  0  0  0
    4.0992    0.1350    0.0000 O   0  0  0  0  0  0  0  0  0  0  0  0
    5.0013   -1.2375    0.0000 C   0  0  0  0  0  0  0  0  0  0  0  0
    5.0013   -0.4125    0.0000 F   0  0  0  0  0  0  0  0  0  0  0  0
    5.7158   -1.6500    0.0000 C   0  0  0  0  0  0  0  0  0  0  0  0
    5.7158   -2.4750    0.0000 C   0  0  0  0  0  0  0  0  0  0  0  0
    6.4302   -2.8875    0.0000 C   0  0  0  0  0  0  0  0  0  0  0  0
    6.4302   -3.7125    0.0000 O   0  0  0  0  0  0  0  0  0  0  0  0
    7.1447   -2.4750    0.0000 N   0  0  0  0  0  0  0  0  0  0  0  0
    7.8592   -2.8875    0.0000 C   0  0  0  0  0  0  0  0  0  0  0  0
    8.5737   -2.4750    0.0000 C   0  0  0  0  0  0  0  0  0  0  0  0
    8.5737   -1.6500    0.0000 C   0  0  0  0  0  0  0  0  0  0  0  0
    9.2881   -2.8875    0.0000 C   0  0  0  0  0  0  0  0  0  0  0  0
    9.2881   -3.7125    0.0000 C   0  0  0  0  0  0  0  0  0  0  0  0
   10.0026   -4.1250    0.0000 C   0  0  0  0  0  0  0  0  0  0  0  0
    8.5737   -4.1250    0.0000 C   0  0  0  0  0  0  0  0  0  0  0  0
    7.8592   -3.7125    0.0000 C   0  0  0  0  0  0  0  0  0  0  0  0
    7.1447   -4.1250    0.0000 N   0  0  0  0  0  0  0  0  0  0  0  0
  1  2  1  0  0  0  0
  2  3  1  0  0  0  0
  3  4  1  0  0  0  0
  4  5  1  0  0  0  0
  4  6  1  0  0  0  0
  6  7  1  0  0  0  0
  7  8  4  0  0  0  0
  8  9  4  0  0  0  0
  9 10  1  0  0  0  0
 10 11  4  0  0  0  0
 11 12  4  0  0  0  0
 12 13  1  0  0  0  0
 13 14  1  0  0  0  0
 12 15  4  0  0  0  0
 15 16  1  0  0  0  0
 15 17  4  0  0  0  0
 10 17  4  0  0  0  0
 17 18  2  0  0  0  0
  9 19  4  0  0  0  0
 19 20  1  0  0  0  0
 19 21  4  0  0  0  0
 21 22  4  0  0  0  0
  7 22  4  0  0  0  0
 22 23  1  0  0  0  0
 23 24  2  0  0  0  0
 23 25  1  0  0  0  0
 25 26  1  0  0  0  0
 26 27  4  0  0  0  0
 27 28  1  0  0  0  0
 27 29  4  0  0  0  0
 29 30  4  0  0  0  0
 30 31  1  0  0  0  0
 30 32  4  0  0  0  0
 32 33  4  0  0  0  0
 26 33  4  0  0  0  0
 33 34  1  0  0  0  0
M  END
> <IC50(uM)>
0.152

> <Outcome>
1.0

> <BindingDB ID>
1098664; 972510

> <BindingDB MonomerID>
470386

> <BindingDB Ligand Name>
US10815215, Example 45::US11130745, Example 45; US10815215, Example 45

> <Curation/DataSource>
US Patent

> <Article DOI>
?

> <PMID>
?

> <Patent Number>
US11130745; US10815215

> <Authors>
Gradl, SN; Nguyen, D; Eis, K; Gunther, J; Stellfeld, T; Janzer, A; Christian, S; Muller, T; Sheikh, SE; Sykes, DB; Ferrara, SJ; Krober, M; Merz, C; Niehues, M; Schafer, M; Zimmermann, K; Nising, CF; Gradl, SN; Nguyen, D; Eis, K; Gunther, J; Stellfeld, T; Janzer, A; Christian, S; Muller, T; Sheikh, SE; Zhou, HJ; Zhao, C; Sykes, DB; Ferrara, SJ; Liu, K; Krober, M; Merz, C; Niehues, M; Schafer, M; Zimmermann, K; Nising, CF

> <Link to Ligand in BindingDB>
http://www.bindingdb.org/bind/chemsearch/marvin/MolStructure.jsp?monomerid=470386

> <Link to Ligand-Target Pair in BindingDB>
http://www.bindingdb.org/jsp/dbsearch/PrimarySearch_ki.jsp?energyterm=kJ/mole&tag=r21&monomerid=470386&enzyme=Dihydroorotate+dehydrogenase&column=ki&startPg=0&Increment=50&submit=Search

> <PubChem CID>
134470021

> <PubChem SID>
441609563

$$$$

  Mrv2115 07222212352D          

 26 28  0  0  0  0            999 V2000
   -0.5303   -5.6827    0.0000 C   0  0  0  0  0  0  0  0  0  0  0  0
    0.0217   -5.0696    0.0000 C   0  0  0  0  0  0  0  0  0  0  0  0
   -0.2332   -4.2849    0.0000 O   0  0  0  0  0  0  0  0  0  0  0  0
    0.3188   -3.6718    0.0000 C   0  0  0  0  0  0  0  0  0  0  0  0
    1.1258   -3.8434    0.0000 O   0  0  0  0  0  0  0  0  0  0  0  0
    0.0639   -2.8872    0.0000 C   0  0  0  0  0  0  0  0  0  0  0  0
    0.6159   -2.2741    0.0000 C   0  0  0  0  0  0  0  0  0  0  0  0
    1.4229   -2.4457    0.0000 N   0  0  0  0  0  0  0  0  0  0  0  0
    1.9749   -1.8326    0.0000 C   0  0  0  0  0  0  0  0  0  0  0  0
    1.7200   -1.0479    0.0000 C   0  0  0  0  0  0  0  0  0  0  0  0
    2.2720   -0.4349    0.0000 C   0  0  0  0  0  0  0  0  0  0  0  0
    3.0790   -0.6064    0.0000 C   0  0  0  0  0  0  0  0  0  0  0  0
    3.7464   -0.1215    0.0000 S   0  0  0  0  0  0  0  0  0  0  0  0
    4.4139   -0.6064    0.0000 C   0  0  0  0  0  0  0  0  0  0  0  0
    5.2208   -0.4349    0.0000 C   0  0  0  0  0  0  0  0  0  0  0  0
    5.7729   -1.0479    0.0000 C   0  0  0  0  0  0  0  0  0  0  0  0
    5.5179   -1.8326    0.0000 C   0  0  0  0  0  0  0  0  0  0  0  0
    4.7110   -2.0041    0.0000 C   0  0  0  0  0  0  0  0  0  0  0  0
    4.1589   -1.3910    0.0000 C   0  0  0  0  0  0  0  0  0  0  0  0
    3.3339   -1.3910    0.0000 C   0  0  0  0  0  0  0  0  0  0  0  0
    2.7819   -2.0041    0.0000 C   0  0  0  0  0  0  0  0  0  0  0  0
   -0.7431   -2.7157    0.0000 C   0  0  0  0  0  0  0  0  0  0  0  0
   -1.2951   -3.3288    0.0000 O   0  0  0  0  0  0  0  0  0  0  0  0
   -0.9980   -1.9311    0.0000 O   0  0  0  0  0  0  0  0  0  0  0  0
   -1.8050   -1.7596    0.0000 C   0  0  0  0  0  0  0  0  0  0  0  0
   -2.0599   -0.9749    0.0000 C   0  0  0  0  0  0  0  0  0  0  0  0
  1  2  1  0  0  0  0
  2  3  1  0  0  0  0
  3  4  1  0  0  0  0
  4  5  2  0  0  0  0
  4  6  1  0  0  0  0
  6  7  2  0  0  0  0
  7  8  1  0  0  0  0
  8  9  1  0  0  0  0
  9 10  4  0  0  0  0
 10 11  4  0  0  0  0
 11 12  4  0  0  0  0
 12 13  4  0  0  0  0
 13 14  4  0  0  0  0
 14 15  4  0  0  0  0
 15 16  4  0  0  0  0
 16 17  4  0  0  0  0
 17 18  4  0  0  0  0
 18 19  4  0  0  0  0
 14 19  4  0  0  0  0
 19 20  4  0  0  0  0
 12 20  4  0  0  0  0
 20 21  4  0  0  0  0
  9 21  4  0  0  0  0
  6 22  1  0  0  0  0
 22 23  2  0  0  0  0
 22 24  1  0  0  0  0
 24 25  1  0  0  0  0
 25 26  1  0  0  0  0
M  END
> <IC50(uM)>
30.0

> <Outcome>
0.0

> <BindingDB ID>
50889933

> <BindingDB MonomerID>
50269005

> <BindingDB Ligand Name>
CHEMBL218467

> <Curation/DataSource>
ChEMBL

> <Article DOI>
10.1016/j.bmcl.2017.06.052

> <PMID>
28669445

> <Patent Number>
?

> <Authors>
McConkey, GA; Bedingfield, PTP; Burrell, DR; Chambers, NC; Cunningham, F; Prior, TJ; Fishwick, CWG; Boa, AN

> <Link to Ligand in BindingDB>
http://www.bindingdb.org/bind/chemsearch/marvin/MolStructure.jsp?monomerid=50269005

> <Link to Ligand-Target Pair in BindingDB>
http://www.bindingdb.org/jsp/dbsearch/PrimarySearch_ki.jsp?energyterm=kJ/mole&tag=r21&monomerid=50269005&enzyme=Dihydroorotate+dehydrogenase&column=ki&startPg=0&Increment=50&submit=Search

> <PubChem CID>
16102641

> <PubChem SID>
404915047

$$$$

  Mrv2115 07222212352D          

 27 29  0  0  0  0            999 V2000
   -0.7145   -2.8875    0.0000 C   0  0  0  0  0  0  0  0  0  0  0  0
    0.0000   -2.4750    0.0000 O   0  0  0  0  0  0  0  0  0  0  0  0
    0.0000   -1.6500    0.0000 C   0  0  0  0  0  0  0  0  0  0  0  0
   -0.7145   -1.2375    0.0000 O   0  0  0  0  0  0  0  0  0  0  0  0
    0.7145   -1.2375    0.0000 C   0  0  0  0  0  0  0  0  0  0  0  0
    0.7145   -0.4125    0.0000 C   0  0  0  0  0  0  0  0  0  0  0  0
    1.4289    0.0000    0.0000 C   0  0  0  0  0  0  0  0  0  0  0  0
    2.1434   -0.4125    0.0000 C   0  0  0  0  0  0  0  0  0  0  0  0
    2.8579    0.0000    0.0000 C   0  0  0  0  0  0  0  0  0  0  0  0
    3.5724   -0.4125    0.0000 C   0  0  0  0  0  0  0  0  0  0  0  0
    4.2868   -0.0000    0.0000 C   0  0  0  0  0  0  0  0  0  0  0  0
    4.2868    0.8250    0.0000 C   0  0  0  0  0  0  0  0  0  0  0  0
    5.0013    1.2375    0.0000 C   0  0  0  0  0  0  0  0  0  0  0  0
    5.0013    2.0625    0.0000 C   0  0  0  0  0  0  0  0  0  0  0  0
    4.2868    2.4750    0.0000 C   0  0  0  0  0  0  0  0  0  0  0  0
    4.2868    3.3000    0.0000 O   0  0  0  0  0  0  0  0  0  0  0  0
    3.5724    2.0625    0.0000 O   0  0  0  0  0  0  0  0  0  0  0  0
    5.7158    2.4750    0.0000 N   0  0  0  0  0  0  0  0  0  0  0  0
    6.4302    2.0625    0.0000 C   0  0  0  0  0  0  0  0  0  0  0  0
    7.1447    2.4750    0.0000 O   0  0  0  0  0  0  0  0  0  0  0  0
    6.4302    1.2375    0.0000 N   0  0  0  0  0  0  0  0  0  0  0  0
    5.7158    0.8250    0.0000 C   0  0  0  0  0  0  0  0  0  0  0  0
    5.7158   -0.0000    0.0000 O   0  0  0  0  0  0  0  0  0  0  0  0
    3.5724   -1.2375    0.0000 C   0  0  0  0  0  0  0  0  0  0  0  0
    2.8579   -1.6500    0.0000 C   0  0  0  0  0  0  0  0  0  0  0  0
    2.1434   -1.2375    0.0000 C   0  0  0  0  0  0  0  0  0  0  0  0
    1.4289   -1.6500    0.0000 C   0  0  0  0  0  0  0  0  0  0  0  0
  1  2  1  0  0  0  0
  2  3  1  0  0  0  0
  3  4  2  0  0  0  0
  3  5  1  0  0  0  0
  5  6  4  0  0  0  0
  6  7  4  0  0  0  0
  7  8  4  0  0  0  0
  8  9  4  0  0  0  0
  9 10  4  0  0  0  0
 10 11  1  0  0  0  0
 11 12  1  0  0  0  0
 12 13  1  0  0  0  0
 13 14  4  0  0  0  0
 14 15  1  0  0  0  0
 15 16  2  0  0  0  0
 15 17  1  0  0  0  0
 14 18  4  0  0  0  0
 18 19  4  0  0  0  0
 19 20  2  0  0  0  0
 19 21  4  0  0  0  0
 21 22  4  0  0  0  0
 13 22  4  0  0  0  0
 22 23  2  0  0  0  0
 10 24  4  0  0  0  0
 24 25  4  0  0  0  0
 25 26  4  0  0  0  0
  8 26  4  0  0  0  0
 26 27  4  0  0  0  0
  5 27  4  0  0  0  0
M  STY  2   1 DAT   2 DAT
M  SAL   1  1  18
M  SDT   1 MRV_IMPLICIT_H                                        
M  SDD   1     0.6482   -0.4125    DR    ALL  0       0  
M  SED   1 IMPL_H1
M  SAL   2  1  21
M  SDT   2 MRV_IMPLICIT_H                                        
M  SDD   2     0.5304   -0.4125    DR    ALL  0       0  
M  SED   2 IMPL_H1
M  END
> <IC50(uM)>
0.078

> <Outcome>
1.0

> <BindingDB ID>
50555376

> <BindingDB MonomerID>
50212056

> <BindingDB Ligand Name>
CHEMBL3960727

> <Curation/DataSource>
ChEMBL

> <Article DOI>
10.1016/j.bmc.2017.01.009

> <PMID>
28118956

> <Patent Number>
?

> <Authors>
Inaoka, DK; Iida, M; Hashimoto, S; Tabuchi, T; Kuranaga, T; Balogun, EO; Honma, T; Tanaka, A; Harada, S; Nara, T; Kita, K; Inoue, M

> <Link to Ligand in BindingDB>
http://www.bindingdb.org/bind/chemsearch/marvin/MolStructure.jsp?monomerid=50212056

> <Link to Ligand-Target Pair in BindingDB>
http://www.bindingdb.org/jsp/dbsearch/PrimarySearch_ki.jsp?energyterm=kJ/mole&tag=r21&monomerid=50212056&enzyme=Dihydroorotate+dehydrogenase&column=ki&startPg=0&Increment=50&submit=Search

> <PubChem CID>
134154785

> <PubChem SID>
375983086

$$$$

  Mrv2115 07222212352D          

 35 39  0  0  0  0            999 V2000
    4.0668    2.3479    0.0000 C   0  0  0  0  0  0  0  0  0  0  0  0
    3.3523    1.9354    0.0000 C   0  0  0  0  0  0  0  0  0  0  0  0
    3.3523    1.1104    0.0000 C   0  0  0  0  0  0  0  0  0  0  0  0
    2.6378    0.6979    0.0000 C   0  0  0  0  0  0  0  0  0  0  0  0
    2.6378   -0.1271    0.0000 C   0  0  0  0  0  0  0  0  0  0  0  0
    1.9233   -0.5396    0.0000 O   0  0  0  0  0  0  0  0  0  0  0  0
    3.3523   -0.5396    0.0000 O   0  0  0  0  0  0  0  0  0  0  0  0
    1.9233    1.1104    0.0000 C   0  0  0  0  0  0  0  0  0  0  0  0
    1.1387    0.8555    0.0000 N   0  0  0  0  0  0  0  0  0  0  0  0
    0.6538    1.5229    0.0000 C   0  0  0  0  0  0  0  0  0  0  0  0
   -0.1712    1.5229    0.0000 C   0  0  0  0  0  0  0  0  0  0  0  0
   -0.5837    0.8085    0.0000 C   0  0  0  0  0  0  0  0  0  0  0  0
   -1.4087    0.8085    0.0000 C   0  0  0  0  0  0  0  0  0  0  0  0
   -1.8212    1.5229    0.0000 C   0  0  0  0  0  0  0  0  0  0  0  0
   -2.6462    1.5229    0.0000 C   0  0  0  0  0  0  0  0  0  0  0  0
   -3.0587    0.8085    0.0000 C   0  0  0  0  0  0  0  0  0  0  0  0
   -3.8837    0.8085    0.0000 C   0  0  0  0  0  0  0  0  0  0  0  0
   -4.2962    1.5229    0.0000 C   0  0  0  0  0  0  0  0  0  0  0  0
   -5.1212    1.5229    0.0000 O   0  0  0  0  0  0  0  0  0  0  0  0
   -5.5337    0.8085    0.0000 C   0  0  0  0  0  0  0  0  0  0  0  0
   -6.3587    0.8085    0.0000 C   0  0  0  0  0  0  0  0  0  0  0  0
   -6.7712    0.0940    0.0000 C   0  0  0  0  0  0  0  0  0  0  0  0
   -7.5962    0.0940    0.0000 N   0  0  0  0  0  0  0  0  0  0  0  0
   -8.0087   -0.6205    0.0000 C   0  0  0  0  0  0  0  0  0  0  0  0
   -8.8337   -0.6205    0.0000 C   0  0  0  0  0  0  0  0  0  0  0  0
   -9.2462    0.0940    0.0000 C   0  0  0  0  0  0  0  0  0  0  0  0
   -8.8337    0.8085    0.0000 C   0  0  0  0  0  0  0  0  0  0  0  0
   -8.0087    0.8085    0.0000 C   0  0  0  0  0  0  0  0  0  0  0  0
   -3.8837    2.2374    0.0000 C   0  0  0  0  0  0  0  0  0  0  0  0
   -3.0587    2.2374    0.0000 C   0  0  0  0  0  0  0  0  0  0  0  0
   -1.4087    2.2374    0.0000 C   0  0  0  0  0  0  0  0  0  0  0  0
   -0.5837    2.2374    0.0000 C   0  0  0  0  0  0  0  0  0  0  0  0
    1.1387    2.1904    0.0000 N   0  0  0  0  0  0  0  0  0  0  0  0
    1.9233    1.9354    0.0000 C   0  0  0  0  0  0  0  0  0  0  0  0
    2.6378    2.3479    0.0000 C   0  0  0  0  0  0  0  0  0  0  0  0
  1  2  1  0  0  0  0
  2  3  4  0  0  0  0
  3  4  4  0  0  0  0
  4  5  1  0  0  0  0
  5  6  2  0  0  0  0
  5  7  1  0  0  0  0
  4  8  4  0  0  0  0
  8  9  4  0  0  0  0
  9 10  4  0  0  0  0
 10 11  1  0  0  0  0
 11 12  4  0  0  0  0
 12 13  4  0  0  0  0
 13 14  4  0  0  0  0
 14 15  1  0  0  0  0
 15 16  4  0  0  0  0
 16 17  4  0  0  0  0
 17 18  4  0  0  0  0
 18 19  1  0  0  0  0
 19 20  1  0  0  0  0
 20 21  1  0  0  0  0
 21 22  1  0  0  0  0
 22 23  1  0  0  0  0
 23 24  1  0  0  0  0
 24 25  1  0  0  0  0
 25 26  1  0  0  0  0
 26 27  1  0  0  0  0
 27 28  1  0  0  0  0
 23 28  1  0  0  0  0
 18 29  4  0  0  0  0
 29 30  4  0  0  0  0
 15 30  4  0  0  0  0
 14 31  4  0  0  0  0
 31 32  4  0  0  0  0
 11 32  4  0  0  0  0
 10 33  4  0  0  0  0
 33 34  4  0  0  0  0
  8 34  4  0  0  0  0
 34 35  4  0  0  0  0
  2 35  4  0  0  0  0
M  STY  1   1 DAT
M  SAL   1  1  33
M  SDT   1 MRV_IMPLICIT_H                                        
M  SDD   1     0.5304   -0.4125    DR    ALL  0       0  
M  SED   1 IMPL_H1
M  END
> <IC50(uM)>
1.632

> <Outcome>
0.0

> <BindingDB ID>
297790

> <BindingDB MonomerID>
155446

> <BindingDB Ligand Name>
US9006454, I88

> <Curation/DataSource>
US Patent

> <Article DOI>
?

> <PMID>
?

> <Patent Number>
US9006454

> <Authors>
Thunuguntla, SS; Subramanya, H; Kunnam, SR; Sanivaru Vijay, SR; Bingi, C; Kusanur, R; Schwarz, M; Arlt, M

> <Link to Ligand in BindingDB>
http://www.bindingdb.org/bind/chemsearch/marvin/MolStructure.jsp?monomerid=155446

> <Link to Ligand-Target Pair in BindingDB>
http://www.bindingdb.org/jsp/dbsearch/PrimarySearch_ki.jsp?energyterm=kJ/mole&tag=r21&monomerid=155446&enzyme=Dihydroorotate+dehydrogenase&column=ki&startPg=0&Increment=50&submit=Search

> <PubChem CID>
58073930

> <PubChem SID>
253658383

$$$$

  Mrv2115 07222212352D          

 25 28  0  0  0  0            999 V2000
   -0.7145   -2.0625    0.0000 N   0  0  0  0  0  0  0  0  0  0  0  0
    0.0000   -1.6500    0.0000 C   0  0  0  0  0  0  0  0  0  0  0  0
    0.7145   -1.2375    0.0000 C   0  0  0  0  0  0  0  0  0  0  0  0
    0.7145   -0.4125    0.0000 C   0  0  0  0  0  0  0  0  0  0  0  0
    0.0000    0.0000    0.0000 C   0  0  0  0  0  0  0  0  0  0  0  0
   -0.7145   -0.4125    0.0000 C   0  0  0  0  0  0  0  0  0  0  0  0
   -1.4289    0.0000    0.0000 C   0  0  0  0  0  0  0  0  0  0  0  0
   -1.4289    0.8250    0.0000 C   0  0  0  0  0  0  0  0  0  0  0  0
   -2.1434    1.2375    0.0000 C   0  0  0  0  0  0  0  0  0  0  0  0
   -2.8579    0.8250    0.0000 C   0  0  0  0  0  0  0  0  0  0  0  0
   -3.5724    1.2375    0.0000 C   0  0  0  0  0  0  0  0  0  0  0  0
   -3.5724    2.0625    0.0000 C   0  0  0  0  0  0  0  0  0  0  0  0
   -2.8579    2.4750    0.0000 N   0  0  0  0  0  0  0  0  0  0  0  0
   -2.1434    2.0625    0.0000 C   0  0  0  0  0  0  0  0  0  0  0  0
   -0.7145    1.2375    0.0000 C   0  0  0  0  0  0  0  0  0  0  0  0
    0.0000    0.8250    0.0000 C   0  0  0  0  0  0  0  0  0  0  0  0
    1.4289    0.0000    0.0000 N   0  0  0  0  0  0  0  0  0  0  0  0
    2.1434   -0.4125    0.0000 C   0  0  0  0  0  0  0  0  0  0  0  0
    2.8579    0.0000    0.0000 C   0  0  0  0  0  0  0  0  0  0  0  0
    3.5724   -0.4125    0.0000 C   0  0  0  0  0  0  0  0  0  0  0  0
    3.5724   -1.2375    0.0000 N   0  0  0  0  0  0  0  0  0  0  0  0
    2.8579   -1.6500    0.0000 C   0  0  0  0  0  0  0  0  0  0  0  0
    2.1434   -1.2375    0.0000 C   0  0  0  0  0  0  0  0  0  0  0  0
    1.4289   -1.6500    0.0000 C   0  0  0  0  0  0  0  0  0  0  0  0
    1.4289   -2.4750    0.0000 O   0  0  0  0  0  0  0  0  0  0  0  0
  1  2  3  0  0  0  0
  2  3  1  0  0  0  0
  3  4  4  0  0  0  0
  4  5  1  0  0  0  0
  5  6  4  0  0  0  0
  6  7  4  0  0  0  0
  7  8  4  0  0  0  0
  8  9  1  0  0  0  0
  9 10  4  0  0  0  0
 10 11  4  0  0  0  0
 11 12  4  0  0  0  0
 12 13  4  0  0  0  0
 13 14  4  0  0  0  0
  9 14  4  0  0  0  0
  8 15  4  0  0  0  0
 15 16  4  0  0  0  0
  5 16  4  0  0  0  0
  4 17  4  0  0  0  0
 17 18  4  0  0  0  0
 18 19  4  0  0  0  0
 19 20  4  0  0  0  0
 20 21  4  0  0  0  0
 21 22  4  0  0  0  0
 22 23  4  0  0  0  0
 18 23  4  0  0  0  0
 23 24  4  0  0  0  0
  3 24  4  0  0  0  0
 24 25  1  0  0  0  0
M  END
> <IC50(uM)>
5.7

> <Outcome>
0.0

> <BindingDB ID>
50720829

> <BindingDB MonomerID>
50365493

> <BindingDB Ligand Name>
CHEMBL1957380

> <Curation/DataSource>
ChEMBL

> <Article DOI>
10.1016/j.bmcl.2012.01.046

> <PMID>
22321214

> <Patent Number>
?

> <Authors>
Bauer, U; Giordanetto, F; Bauer, M; O'Mahony, G; Johansson, KE; Knecht, W; Hartleib-Geschwindner, J; Carlsson, ET; Enroth, C

> <Link to Ligand in BindingDB>
http://www.bindingdb.org/bind/chemsearch/marvin/MolStructure.jsp?monomerid=50365493

> <Link to Ligand-Target Pair in BindingDB>
http://www.bindingdb.org/jsp/dbsearch/PrimarySearch_ki.jsp?energyterm=kJ/mole&tag=r21&monomerid=50365493&enzyme=Dihydroorotate+dehydrogenase&column=ki&startPg=0&Increment=50&submit=Search

> <PubChem CID>
57398368

> <PubChem SID>
136969555

$$$$

  Mrv2115 07222212352D          

 25 27  0  0  0  0            999 V2000
    0.0000   -2.4750    0.0000 C   0  0  0  0  0  0  0  0  0  0  0  0
    0.0000   -1.6500    0.0000 O   0  0  0  0  0  0  0  0  0  0  0  0
    0.7145   -1.2375    0.0000 C   0  0  0  0  0  0  0  0  0  0  0  0
    0.7145   -0.4125    0.0000 C   0  0  0  0  0  0  0  0  0  0  0  0
    1.4289    0.0000    0.0000 C   0  0  0  0  0  0  0  0  0  0  0  0
    2.1434   -0.4125    0.0000 C   0  0  0  0  0  0  0  0  0  0  0  0
    2.8579    0.0000    0.0000 C   0  0  0  0  0  0  0  0  0  0  0  0
    2.8579    0.8250    0.0000 C   0  0  0  0  0  0  0  0  0  0  0  0
    2.1434    1.2375    0.0000 C   0  0  0  0  0  0  0  0  0  0  0  0
    2.1434    2.0625    0.0000 C   0  0  0  0  0  0  0  0  0  0  0  0
    1.4289    2.4750    0.0000 C   0  0  0  0  0  0  0  0  0  0  0  0
    0.7145    2.0625    0.0000 C   0  0  0  0  0  0  0  0  0  0  0  0
    0.0000    2.4750    0.0000 O   0  0  0  0  0  0  0  0  0  0  0  0
    0.7145    1.2375    0.0000 O   0  0  0  0  0  0  0  0  0  0  0  0
    1.4289    3.3000    0.0000 N   0  0  0  0  0  0  0  0  0  0  0  0
    2.1434    3.7125    0.0000 C   0  0  0  0  0  0  0  0  0  0  0  0
    2.1434    4.5375    0.0000 O   0  0  0  0  0  0  0  0  0  0  0  0
    2.8579    3.3000    0.0000 N   0  0  0  0  0  0  0  0  0  0  0  0
    2.8579    2.4750    0.0000 C   0  0  0  0  0  0  0  0  0  0  0  0
    3.5724    2.0625    0.0000 O   0  0  0  0  0  0  0  0  0  0  0  0
    3.5724   -0.4125    0.0000 C   0  0  0  0  0  0  0  0  0  0  0  0
    3.5724   -1.2375    0.0000 C   0  0  0  0  0  0  0  0  0  0  0  0
    2.8579   -1.6500    0.0000 C   0  0  0  0  0  0  0  0  0  0  0  0
    2.1434   -1.2375    0.0000 C   0  0  0  0  0  0  0  0  0  0  0  0
    1.4289   -1.6500    0.0000 C   0  0  0  0  0  0  0  0  0  0  0  0
  1  2  1  0  0  0  0
  2  3  1  0  0  0  0
  3  4  4  0  0  0  0
  4  5  4  0  0  0  0
  5  6  4  0  0  0  0
  6  7  4  0  0  0  0
  7  8  1  0  0  0  0
  8  9  1  0  0  0  0
  9 10  1  0  0  0  0
 10 11  4  0  0  0  0
 11 12  1  0  0  0  0
 12 13  2  0  0  0  0
 12 14  1  0  0  0  0
 11 15  4  0  0  0  0
 15 16  4  0  0  0  0
 16 17  2  0  0  0  0
 16 18  4  0  0  0  0
 18 19  4  0  0  0  0
 10 19  4  0  0  0  0
 19 20  2  0  0  0  0
  7 21  4  0  0  0  0
 21 22  4  0  0  0  0
 22 23  4  0  0  0  0
 23 24  4  0  0  0  0
  6 24  4  0  0  0  0
 24 25  4  0  0  0  0
  3 25  4  0  0  0  0
M  STY  2   1 DAT   2 DAT
M  SAL   1  1  15
M  SDT   1 MRV_IMPLICIT_H                                        
M  SDD   1     0.5304   -0.4125    DR    ALL  0       0  
M  SED   1 IMPL_H1
M  SAL   2  1  18
M  SDT   2 MRV_IMPLICIT_H                                        
M  SDD   2     0.5304   -0.4125    DR    ALL  0       0  
M  SED   2 IMPL_H1
M  END
> <IC50(uM)>
0.02

> <Outcome>
1.0

> <BindingDB ID>
50555285

> <BindingDB MonomerID>
50211716

> <BindingDB Ligand Name>
CHEMBL3973700

> <Curation/DataSource>
ChEMBL

> <Article DOI>
10.1016/j.bmc.2017.01.009

> <PMID>
28118956

> <Patent Number>
?

> <Authors>
Inaoka, DK; Iida, M; Hashimoto, S; Tabuchi, T; Kuranaga, T; Balogun, EO; Honma, T; Tanaka, A; Harada, S; Nara, T; Kita, K; Inoue, M

> <Link to Ligand in BindingDB>
http://www.bindingdb.org/bind/chemsearch/marvin/MolStructure.jsp?monomerid=50211716

> <Link to Ligand-Target Pair in BindingDB>
http://www.bindingdb.org/jsp/dbsearch/PrimarySearch_ki.jsp?energyterm=kJ/mole&tag=r21&monomerid=50211716&enzyme=Dihydroorotate+dehydrogenase&column=ki&startPg=0&Increment=50&submit=Search

> <PubChem CID>
134153573

> <PubChem SID>
375983059

$$$$

  Mrv2115 07222212352D          

 36 39  0  0  0  0            999 V2000
   -3.1034    2.1599    0.0000 C   0  0  0  0  0  0  0  0  0  0  0  0
   -2.6909    1.4455    0.0000 C   0  0  0  0  0  0  0  0  0  0  0  0
   -3.1034    0.7310    0.0000 O   0  0  0  0  0  0  0  0  0  0  0  0
   -2.6909    0.0165    0.0000 C   0  0  0  0  0  0  0  0  0  0  0  0
   -1.8659    0.0165    0.0000 C   0  0  0  0  0  0  0  0  0  0  0  0
   -1.4534   -0.6979    0.0000 C   0  0  0  0  0  0  0  0  0  0  0  0
   -0.6284   -0.6979    0.0000 N   0  0  0  0  0  0  0  0  0  0  0  0
   -0.1435   -1.3654    0.0000 N   0  0  0  0  0  0  0  0  0  0  0  0
    0.6411   -1.1104    0.0000 C   0  0  0  0  0  0  0  0  0  0  0  0
    0.6411   -0.2854    0.0000 N   0  0  0  0  0  0  0  0  0  0  0  0
   -0.1435   -0.0305    0.0000 C   0  0  0  0  0  0  0  0  0  0  0  0
   -0.3984    0.7541    0.0000 O   0  0  0  0  0  0  0  0  0  0  0  0
    1.3556    0.1271    0.0000 C   0  0  0  0  0  0  0  0  0  0  0  0
    2.0701   -0.2854    0.0000 C   0  0  0  0  0  0  0  0  0  0  0  0
    2.0701   -1.1104    0.0000 O   0  0  0  0  0  0  0  0  0  0  0  0
    1.3556   -1.5229    0.0000 C   0  0  0  0  0  0  0  0  0  0  0  0
   -1.8659   -1.4124    0.0000 C   0  0  0  0  0  0  0  0  0  0  0  0
   -1.4534   -2.1269    0.0000 F   0  0  0  0  0  0  0  0  0  0  0  0
   -2.6909   -1.4124    0.0000 C   0  0  0  0  0  0  0  0  0  0  0  0
   -3.1034   -0.6979    0.0000 C   0  0  0  0  0  0  0  0  0  0  0  0
   -3.9284   -0.6979    0.0000 C   0  0  0  0  0  0  0  0  0  0  0  0
   -4.3409    0.0165    0.0000 O   0  0  0  0  0  0  0  0  0  0  0  0
   -4.3409   -1.4124    0.0000 N   0  0  0  0  0  0  0  0  0  0  0  0
   -5.1659   -1.4124    0.0000 C   0  0  0  0  0  0  0  0  0  0  0  0
   -5.5784   -2.1269    0.0000 C   0  0  0  0  0  0  0  0  0  0  0  0
   -5.1659   -2.8414    0.0000 F   0  0  0  0  0  0  0  0  0  0  0  0
   -6.4034   -2.1269    0.0000 C   0  0  0  0  0  0  0  0  0  0  0  0
   -6.8159   -1.4124    0.0000 C   0  0  0  0  0  0  0  0  0  0  0  0
   -7.6409   -1.4124    0.0000 F   0  0  0  0  0  0  0  0  0  0  0  0
   -6.4034   -0.6979    0.0000 C   0  0  0  0  0  0  0  0  0  0  0  0
   -5.5784   -0.6979    0.0000 C   0  0  0  0  0  0  0  0  0  0  0  0
   -5.1659    0.0165    0.0000 F   0  0  0  0  0  0  0  0  0  0  0  0
   -1.8659    1.4455    0.0000 C   0  0  0  0  0  0  0  0  0  0  0  0
   -1.8659    0.6205    0.0000 F   0  0  0  0  0  0  0  0  0  0  0  0
   -1.8659    2.2705    0.0000 F   0  0  0  0  0  0  0  0  0  0  0  0
   -1.0409    1.4455    0.0000 F   0  0  0  0  0  0  0  0  0  0  0  0
  1  2  1  0  0  0  0
  2  3  1  0  0  0  0
  3  4  1  0  0  0  0
  4  5  4  0  0  0  0
  5  6  4  0  0  0  0
  6  7  1  0  0  0  0
  7  8  4  0  0  0  0
  8  9  4  0  0  0  0
  9 10  4  0  0  0  0
 10 11  4  0  0  0  0
  7 11  4  0  0  0  0
 11 12  2  0  0  0  0
 10 13  1  0  0  0  0
 13 14  1  0  0  0  0
 14 15  1  0  0  0  0
 15 16  1  0  0  0  0
  9 16  1  0  0  0  0
  6 17  4  0  0  0  0
 17 18  1  0  0  0  0
 17 19  4  0  0  0  0
 19 20  4  0  0  0  0
  4 20  4  0  0  0  0
 20 21  1  0  0  0  0
 21 22  2  0  0  0  0
 21 23  1  0  0  0  0
 23 24  1  0  0  0  0
 24 25  4  0  0  0  0
 25 26  1  0  0  0  0
 25 27  4  0  0  0  0
 27 28  4  0  0  0  0
 28 29  1  0  0  0  0
 28 30  4  0  0  0  0
 30 31  4  0  0  0  0
 24 31  4  0  0  0  0
 31 32  1  0  0  0  0
  2 33  1  0  0  0  0
 33 34  1  0  0  0  0
 33 35  1  0  0  0  0
 33 36  1  0  0  0  0
M  END
> <IC50(uM)>
0.21

> <Outcome>
1.0

> <BindingDB ID>
1020589

> <BindingDB MonomerID>
490528

> <BindingDB Ligand Name>
5-fluoro-4-(3-oxo-5,6-dihydro-3H-[1,2,4]triazolo[3,4-c][1,4]oxazin-2(8H)-yl)-N-(2,4,6-trifluoro-phenyl)-2-{[(2S)-1,1,1-trifluoropropan-2-yl]oxy}benzamide::US10968216, Example 196

> <Curation/DataSource>
US Patent

> <Article DOI>
?

> <PMID>
?

> <Patent Number>
US10968216

> <Authors>
Gradl, SN; Nguyen, D; Eis, K; Gunther, J; Stellfeld, T; Janzer, A; Christian, S; Mueller, T; Sheikh, SE; Zhou, HJ; Zhao, C; Sykes, DB; Ferrara, SJ; Liu, K; Herbert, SA; Merz, C; Niehues, M; Nising, CF; Schafer, M; Zimmermann, K; Knablein, J; Thede, K; Faupel, T

> <Link to Ligand in BindingDB>
http://www.bindingdb.org/bind/chemsearch/marvin/MolStructure.jsp?monomerid=490528

> <Link to Ligand-Target Pair in BindingDB>
http://www.bindingdb.org/jsp/dbsearch/PrimarySearch_ki.jsp?energyterm=kJ/mole&tag=r21&monomerid=490528&enzyme=Dihydroorotate+dehydrogenase&column=ki&startPg=0&Increment=50&submit=Search

> <PubChem CID>
134474411

> <PubChem SID>
447117254

$$$$

  Mrv2115 07222212352D          

 29 31  0  0  0  0            999 V2000
    0.7145   -3.7125    0.0000 O   0  0  0  0  0  0  0  0  0  0  0  0
    1.4289   -4.1250    0.0000 C   0  0  0  0  0  0  0  0  0  0  0  0
    2.1434   -3.7125    0.0000 O   0  0  0  0  0  0  0  0  0  0  0  0
    1.4289   -4.9500    0.0000 C   0  0  0  0  0  0  0  0  0  0  0  0
    2.0964   -5.4349    0.0000 C   0  0  0  0  0  0  0  0  0  0  0  0
    2.8810   -5.1800    0.0000 C   0  0  0  0  0  0  0  0  0  0  0  0
    3.4941   -5.7320    0.0000 O   0  0  0  0  0  0  0  0  0  0  0  0
    3.0525   -4.3730    0.0000 N   0  0  0  0  0  0  0  0  0  0  0  0
    3.8372   -4.1181    0.0000 C   0  0  0  0  0  0  0  0  0  0  0  0
    4.0087   -3.3111    0.0000 C   0  0  0  0  0  0  0  0  0  0  0  0
    4.7933   -3.0562    0.0000 C   0  0  0  0  0  0  0  0  0  0  0  0
    5.4064   -3.6082    0.0000 C   0  0  0  0  0  0  0  0  0  0  0  0
    6.1910   -3.3533    0.0000 C   0  0  0  0  0  0  0  0  0  0  0  0
    6.3625   -2.5463    0.0000 C   0  0  0  0  0  0  0  0  0  0  0  0
    7.1472   -2.2913    0.0000 C   0  0  0  0  0  0  0  0  0  0  0  0
    7.7603   -2.8434    0.0000 C   0  0  0  0  0  0  0  0  0  0  0  0
    7.5887   -3.6503    0.0000 C   0  0  0  0  0  0  0  0  0  0  0  0
    8.2018   -4.2024    0.0000 O   0  0  0  0  0  0  0  0  0  0  0  0
    8.9864   -3.9474    0.0000 C   0  0  0  0  0  0  0  0  0  0  0  0
    9.7711   -3.6925    0.0000 F   0  0  0  0  0  0  0  0  0  0  0  0
    9.2414   -4.7321    0.0000 F   0  0  0  0  0  0  0  0  0  0  0  0
    8.7315   -3.1628    0.0000 F   0  0  0  0  0  0  0  0  0  0  0  0
    6.8041   -3.9053    0.0000 C   0  0  0  0  0  0  0  0  0  0  0  0
    5.2349   -4.4152    0.0000 C   0  0  0  0  0  0  0  0  0  0  0  0
    4.4502   -4.6701    0.0000 C   0  0  0  0  0  0  0  0  0  0  0  0
    4.2787   -5.4771    0.0000 F   0  0  0  0  0  0  0  0  0  0  0  0
    1.8414   -6.2195    0.0000 C   0  0  0  0  0  0  0  0  0  0  0  0
    1.0164   -6.2195    0.0000 C   0  0  0  0  0  0  0  0  0  0  0  0
    0.7615   -5.4349    0.0000 C   0  0  0  0  0  0  0  0  0  0  0  0
  1  2  2  0  0  0  0
  2  3  1  0  0  0  0
  2  4  1  0  0  0  0
  4  5  2  0  0  0  0
  5  6  1  0  0  0  0
  6  7  2  0  0  0  0
  6  8  1  0  0  0  0
  8  9  1  0  0  0  0
  9 10  4  0  0  0  0
 10 11  4  0  0  0  0
 11 12  4  0  0  0  0
 12 13  1  0  0  0  0
 13 14  4  0  0  0  0
 14 15  4  0  0  0  0
 15 16  4  0  0  0  0
 16 17  4  0  0  0  0
 17 18  1  0  0  0  0
 18 19  1  0  0  0  0
 19 20  1  0  0  0  0
 19 21  1  0  0  0  0
 19 22  1  0  0  0  0
 17 23  4  0  0  0  0
 13 23  4  0  0  0  0
 12 24  4  0  0  0  0
 24 25  4  0  0  0  0
  9 25  4  0  0  0  0
 25 26  1  0  0  0  0
  5 27  1  0  0  0  0
 27 28  1  0  0  0  0
 28 29  1  0  0  0  0
  4 29  1  0  0  0  0
M  END
> <IC50(uM)>
0.28

> <Outcome>
1.0

> <BindingDB ID>
50251701; 28076

> <BindingDB MonomerID>
1542

> <BindingDB Ligand Name>
2-({2-fluoro-4-[3-(trifluoromethoxy)phenyl]phenyl}carbamoyl)cyclopent-1-ene-1-carboxylic acid::5,11-dihydro-11-ethyl-5-methyl-2-morpholino-6H-dipyrido[3,2-b:2 ,3 -e][1,4]diazepin-6-one::CHEMBL154493::Compound 3::Dipyridodiazepinone deriv. 31

> <Curation/DataSource>
ChEMBL; Curated from the literature by BindingDB

> <Article DOI>
10.1016/j.bmcl.2003.10.021; 10.1021/jm0506975

> <PMID>
14684297; 16480261

> <Patent Number>
?

> <Authors>
Leban, J; Saeb, W; Garcia, G; Baumgartner, R; Kramer, B; Baumgartner, R; Walloschek, M; Kralik, M; Gotschlich, A; Tasler, S; Mies, J; Leban, J

> <Link to Ligand in BindingDB>
http://www.bindingdb.org/bind/chemsearch/marvin/MolStructure.jsp?monomerid=1542

> <Link to Ligand-Target Pair in BindingDB>
http://www.bindingdb.org/jsp/dbsearch/PrimarySearch_ki.jsp?energyterm=kJ/mole&tag=r21&monomerid=1542&enzyme=Dihydroorotate+dehydrogenase&column=ki&startPg=0&Increment=50&submit=Search

> <PubChem CID>
9547914

> <PubChem SID>
8031404

$$$$

  Mrv2115 07222212352D          

 23 25  0  0  0  0            999 V2000
    2.1434   -2.8875    0.0000 O   0  0  0  0  0  0  0  0  0  0  0  0
    2.1434   -3.7125    0.0000 C   0  0  0  0  0  0  0  0  0  0  0  0
    2.8579   -4.1250    0.0000 O   0  0  0  0  0  0  0  0  0  0  0  0
    1.4289   -4.1250    0.0000 C   0  0  0  0  0  0  0  0  0  0  0  0
    1.4289   -4.9500    0.0000 N   0  0  0  0  0  0  0  0  0  0  0  0
    0.7145   -5.3625    0.0000 C   0  0  0  0  0  0  0  0  0  0  0  0
    0.7145   -6.1875    0.0000 O   0  0  0  0  0  0  0  0  0  0  0  0
    0.0000   -4.9500    0.0000 N   0  0  0  0  0  0  0  0  0  0  0  0
    0.0000   -4.1250    0.0000 C   0  0  0  0  0  0  0  0  0  0  0  0
   -0.7145   -3.7125    0.0000 O   0  0  0  0  0  0  0  0  0  0  0  0
    0.7145   -3.7125    0.0000 C   0  0  0  0  0  0  0  0  0  0  0  0
    0.7145   -2.8875    0.0000 C   0  0  0  0  0  0  0  0  0  0  0  0
    1.4289   -2.4750    0.0000 C   0  0  0  0  0  0  0  0  0  0  0  0
    1.4289   -1.6500    0.0000 C   0  0  0  0  0  0  0  0  0  0  0  0
    0.7145   -1.2375    0.0000 N   0  0  0  0  0  0  0  0  0  0  0  0
    0.7145   -0.4125    0.0000 C   0  0  0  0  0  0  0  0  0  0  0  0
    1.4289    0.0000    0.0000 C   0  0  0  0  0  0  0  0  0  0  0  0
    2.1434   -0.4125    0.0000 C   0  0  0  0  0  0  0  0  0  0  0  0
    2.8579    0.0000    0.0000 C   0  0  0  0  0  0  0  0  0  0  0  0
    3.5724   -0.4125    0.0000 C   0  0  0  0  0  0  0  0  0  0  0  0
    3.5724   -1.2375    0.0000 C   0  0  0  0  0  0  0  0  0  0  0  0
    2.8579   -1.6500    0.0000 C   0  0  0  0  0  0  0  0  0  0  0  0
    2.1434   -1.2375    0.0000 C   0  0  0  0  0  0  0  0  0  0  0  0
  1  2  2  0  0  0  0
  2  3  1  0  0  0  0
  2  4  1  0  0  0  0
  4  5  4  0  0  0  0
  5  6  4  0  0  0  0
  6  7  2  0  0  0  0
  6  8  4  0  0  0  0
  8  9  4  0  0  0  0
  9 10  2  0  0  0  0
  9 11  4  0  0  0  0
  4 11  4  0  0  0  0
 11 12  1  0  0  0  0
 12 13  1  0  0  0  0
 13 14  1  0  0  0  0
 14 15  4  0  0  0  0
 15 16  4  0  0  0  0
 16 17  4  0  0  0  0
 17 18  4  0  0  0  0
 18 19  4  0  0  0  0
 19 20  4  0  0  0  0
 20 21  4  0  0  0  0
 21 22  4  0  0  0  0
 22 23  4  0  0  0  0
 14 23  4  0  0  0  0
 18 23  4  0  0  0  0
M  STY  2   1 DAT   2 DAT
M  SAL   1  1   5
M  SDT   1 MRV_IMPLICIT_H                                        
M  SDD   1     0.5304   -0.4125    DR    ALL  0       0  
M  SED   1 IMPL_H1
M  SAL   2  1   8
M  SDT   2 MRV_IMPLICIT_H                                        
M  SDD   2     0.5304   -0.4125    DR    ALL  0       0  
M  SED   2 IMPL_H1
M  END
> <IC50(uM)>
1.25

> <Outcome>
0.0

> <BindingDB ID>
50555342

> <BindingDB MonomerID>
50211964

> <BindingDB Ligand Name>
CHEMBL3895455

> <Curation/DataSource>
ChEMBL

> <Article DOI>
10.1016/j.bmc.2017.01.009

> <PMID>
28118956

> <Patent Number>
?

> <Authors>
Inaoka, DK; Iida, M; Hashimoto, S; Tabuchi, T; Kuranaga, T; Balogun, EO; Honma, T; Tanaka, A; Harada, S; Nara, T; Kita, K; Inoue, M

> <Link to Ligand in BindingDB>
http://www.bindingdb.org/bind/chemsearch/marvin/MolStructure.jsp?monomerid=50211964

> <Link to Ligand-Target Pair in BindingDB>
http://www.bindingdb.org/jsp/dbsearch/PrimarySearch_ki.jsp?energyterm=kJ/mole&tag=r21&monomerid=50211964&enzyme=Dihydroorotate+dehydrogenase&column=ki&startPg=0&Increment=50&submit=Search

> <PubChem CID>
134137428

> <PubChem SID>
375983084

$$$$

  Mrv2115 07222212352D          

 25 27  0  0  0  0            999 V2000
    3.4696   -5.2134    0.0000 C   0  0  0  0  0  0  0  0  0  0  0  0
    3.2980   -6.0204    0.0000 C   0  0  0  0  0  0  0  0  0  0  0  0
    3.8501   -6.6335    0.0000 C   0  0  0  0  0  0  0  0  0  0  0  0
    4.6706   -6.5472    0.0000 C   0  0  0  0  0  0  0  0  0  0  0  0
    5.1555   -7.2147    0.0000 C   0  0  0  0  0  0  0  0  0  0  0  0
    5.9760   -7.1284    0.0000 C   0  0  0  0  0  0  0  0  0  0  0  0
    6.4609   -7.7959    0.0000 C   0  0  0  0  0  0  0  0  0  0  0  0
    6.1253   -8.5496    0.0000 C   0  0  0  0  0  0  0  0  0  0  0  0
    6.6102   -9.2170    0.0000 C   0  0  0  0  0  0  0  0  0  0  0  0
    7.0952   -9.8844    0.0000 F   0  0  0  0  0  0  0  0  0  0  0  0
    7.2777   -8.7321    0.0000 F   0  0  0  0  0  0  0  0  0  0  0  0
    5.9428   -9.7019    0.0000 F   0  0  0  0  0  0  0  0  0  0  0  0
    5.3048   -8.6358    0.0000 N   0  0  0  0  0  0  0  0  0  0  0  0
    4.8199   -7.9684    0.0000 C   0  0  0  0  0  0  0  0  0  0  0  0
    3.4376   -7.3479    0.0000 C   0  0  0  0  0  0  0  0  0  0  0  0
    2.6306   -7.1764    0.0000 N   0  0  0  0  0  0  0  0  0  0  0  0
    2.5444   -6.3559    0.0000 C   0  0  0  0  0  0  0  0  0  0  0  0
    1.8299   -5.9434    0.0000 C   0  0  0  0  0  0  0  0  0  0  0  0
    1.1154   -6.3559    0.0000 O   0  0  0  0  0  0  0  0  0  0  0  0
    1.8299   -5.1184    0.0000 N   0  0  0  0  0  0  0  0  0  0  0  0
    1.2465   -4.5351    0.0000 C   0  0  0  0  0  0  0  0  0  0  0  0
    1.8299   -3.9517    0.0000 C   0  0  0  0  0  0  0  0  0  0  0  0
    1.2465   -3.3683    0.0000 F   0  0  0  0  0  0  0  0  0  0  0  0
    2.4133   -3.3683    0.0000 F   0  0  0  0  0  0  0  0  0  0  0  0
    2.4133   -4.5351    0.0000 C   0  0  0  0  0  0  0  0  0  0  0  0
  1  2  1  0  0  0  0
  2  3  4  0  0  0  0
  3  4  1  0  0  0  0
  4  5  1  0  0  0  0
  5  6  4  0  0  0  0
  6  7  4  0  0  0  0
  7  8  4  0  0  0  0
  8  9  1  0  0  0  0
  9 10  1  0  0  0  0
  9 11  1  0  0  0  0
  9 12  1  0  0  0  0
  8 13  4  0  0  0  0
 13 14  4  0  0  0  0
  5 14  4  0  0  0  0
  3 15  4  0  0  0  0
 15 16  4  0  0  0  0
 16 17  4  0  0  0  0
  2 17  4  0  0  0  0
 17 18  1  0  0  0  0
 18 19  2  0  0  0  0
 18 20  1  0  0  0  0
 20 21  1  0  0  0  0
 21 22  1  0  0  0  0
 22 23  1  0  0  0  0
 22 24  1  0  0  0  0
 22 25  1  0  0  0  0
 20 25  1  0  0  0  0
M  STY  1   1 DAT
M  SAL   1  1  16
M  SDT   1 MRV_IMPLICIT_H                                        
M  SDD   1     0.5304   -0.4125    DR    ALL  0       0  
M  SED   1 IMPL_H1
M  END
> <IC50(uM)>
100.0

> <Outcome>
0.0

> <BindingDB ID>
51330103

> <BindingDB MonomerID>
50538351

> <BindingDB Ligand Name>
CHEMBL4636553

> <Curation/DataSource>
ChEMBL

> <Article DOI>
10.1021/acs.jmedchem.0c00311

> <PMID>
32248693

> <Patent Number>
?

> <Authors>
Kokkonda, S; Deng, X; White, KL; El Mazouni, F; White, J; Shackleford, DM; Katneni, K; Chiu, FCK; Barker, H; McLaren, J; Crighton, E; Chen, G; Angulo-Barturen, I; Jimenez-Diaz, MB; Ferrer, S; Huertas-Valentin, L; Martinez-Martinez, MS; Lafuente-Monasterio, MJ; Chittimalla, R; Shahi, SP; Wittlin, S; Waterson, D; Burrows, JN; Matthews, D; Tomchick, D; Rathod, PK; Palmer, MJ; Charman, SA; Phillips, MA

> <Link to Ligand in BindingDB>
http://www.bindingdb.org/bind/chemsearch/marvin/MolStructure.jsp?monomerid=50538351

> <Link to Ligand-Target Pair in BindingDB>
http://www.bindingdb.org/jsp/dbsearch/PrimarySearch_ki.jsp?energyterm=kJ/mole&tag=r21&monomerid=50538351&enzyme=Dihydroorotate+dehydrogenase&column=ki&startPg=0&Increment=50&submit=Search

> <PubChem CID>
156012404

> <PubChem SID>
442139914

$$$$

  Mrv2115 07222212352D          

 36 39  0  0  0  0            999 V2000
   -3.1034    2.1599    0.0000 C   0  0  0  0  0  0  0  0  0  0  0  0
   -2.6909    1.4455    0.0000 C   0  0  0  0  0  0  0  0  0  0  0  0
   -3.1034    0.7310    0.0000 O   0  0  0  0  0  0  0  0  0  0  0  0
   -2.6909    0.0165    0.0000 C   0  0  0  0  0  0  0  0  0  0  0  0
   -1.8659    0.0165    0.0000 C   0  0  0  0  0  0  0  0  0  0  0  0
   -1.4534   -0.6979    0.0000 C   0  0  0  0  0  0  0  0  0  0  0  0
   -0.6284   -0.6979    0.0000 N   0  0  0  0  0  0  0  0  0  0  0  0
   -0.1435   -1.3654    0.0000 N   0  0  0  0  0  0  0  0  0  0  0  0
    0.6411   -1.1104    0.0000 C   0  0  0  0  0  0  0  0  0  0  0  0
    0.6411   -0.2854    0.0000 N   0  0  0  0  0  0  0  0  0  0  0  0
   -0.1435   -0.0305    0.0000 C   0  0  0  0  0  0  0  0  0  0  0  0
   -0.3984    0.7541    0.0000 O   0  0  0  0  0  0  0  0  0  0  0  0
    1.3556    0.1271    0.0000 C   0  0  0  0  0  0  0  0  0  0  0  0
    2.0701   -0.2854    0.0000 C   0  0  0  0  0  0  0  0  0  0  0  0
    2.0701   -1.1104    0.0000 O   0  0  0  0  0  0  0  0  0  0  0  0
    1.3556   -1.5229    0.0000 C   0  0  0  0  0  0  0  0  0  0  0  0
   -1.8659   -1.4124    0.0000 C   0  0  0  0  0  0  0  0  0  0  0  0
   -1.4534   -2.1269    0.0000 F   0  0  0  0  0  0  0  0  0  0  0  0
   -2.6909   -1.4124    0.0000 C   0  0  0  0  0  0  0  0  0  0  0  0
   -3.1034   -0.6979    0.0000 C   0  0  0  0  0  0  0  0  0  0  0  0
   -3.9284   -0.6979    0.0000 C   0  0  0  0  0  0  0  0  0  0  0  0
   -4.3409    0.0165    0.0000 O   0  0  0  0  0  0  0  0  0  0  0  0
   -4.3409   -1.4124    0.0000 N   0  0  0  0  0  0  0  0  0  0  0  0
   -5.1659   -1.4124    0.0000 C   0  0  0  0  0  0  0  0  0  0  0  0
   -5.5784   -2.1269    0.0000 C   0  0  0  0  0  0  0  0  0  0  0  0
   -5.1659   -2.8414    0.0000 Cl  0  0  0  0  0  0  0  0  0  0  0  0
   -6.4034   -2.1269    0.0000 C   0  0  0  0  0  0  0  0  0  0  0  0
   -6.8159   -1.4124    0.0000 C   0  0  0  0  0  0  0  0  0  0  0  0
   -7.6409   -1.4124    0.0000 F   0  0  0  0  0  0  0  0  0  0  0  0
   -6.4034   -0.6979    0.0000 C   0  0  0  0  0  0  0  0  0  0  0  0
   -5.5784   -0.6979    0.0000 C   0  0  0  0  0  0  0  0  0  0  0  0
   -5.1659    0.0165    0.0000 Cl  0  0  0  0  0  0  0  0  0  0  0  0
   -1.8659    1.4455    0.0000 C   0  0  0  0  0  0  0  0  0  0  0  0
   -1.8659    0.6205    0.0000 F   0  0  0  0  0  0  0  0  0  0  0  0
   -1.8659    2.2705    0.0000 F   0  0  0  0  0  0  0  0  0  0  0  0
   -1.0409    1.4455    0.0000 F   0  0  0  0  0  0  0  0  0  0  0  0
  1  2  1  0  0  0  0
  2  3  1  0  0  0  0
  3  4  1  0  0  0  0
  4  5  4  0  0  0  0
  5  6  4  0  0  0  0
  6  7  1  0  0  0  0
  7  8  4  0  0  0  0
  8  9  4  0  0  0  0
  9 10  4  0  0  0  0
 10 11  4  0  0  0  0
  7 11  4  0  0  0  0
 11 12  2  0  0  0  0
 10 13  1  0  0  0  0
 13 14  1  0  0  0  0
 14 15  1  0  0  0  0
 15 16  1  0  0  0  0
  9 16  1  0  0  0  0
  6 17  4  0  0  0  0
 17 18  1  0  0  0  0
 17 19  4  0  0  0  0
 19 20  4  0  0  0  0
  4 20  4  0  0  0  0
 20 21  1  0  0  0  0
 21 22  2  0  0  0  0
 21 23  1  0  0  0  0
 23 24  1  0  0  0  0
 24 25  4  0  0  0  0
 25 26  1  0  0  0  0
 25 27  4  0  0  0  0
 27 28  4  0  0  0  0
 28 29  1  0  0  0  0
 28 30  4  0  0  0  0
 30 31  4  0  0  0  0
 24 31  4  0  0  0  0
 31 32  1  0  0  0  0
  2 33  1  0  0  0  0
 33 34  1  0  0  0  0
 33 35  1  0  0  0  0
 33 36  1  0  0  0  0
M  END
> <IC50(uM)>
0.007

> <Outcome>
1.0

> <BindingDB ID>
1020590

> <BindingDB MonomerID>
490529

> <BindingDB Ligand Name>
N-(2,6-dichloro-4-fluorophenyl)-5-fluoro-4-(3-oxo-5,6-dihydro-3H-[1,2,4]triazolo[3,4-c]-[1,4]oxazin-2(8H)-yl)-2-{[(2S)-1,1,1-trifluoropropan-2-yl]oxy}benzamide::US10968216, Example 197

> <Curation/DataSource>
US Patent

> <Article DOI>
?

> <PMID>
?

> <Patent Number>
US10968216

> <Authors>
Gradl, SN; Nguyen, D; Eis, K; Gunther, J; Stellfeld, T; Janzer, A; Christian, S; Mueller, T; Sheikh, SE; Zhou, HJ; Zhao, C; Sykes, DB; Ferrara, SJ; Liu, K; Herbert, SA; Merz, C; Niehues, M; Nising, CF; Schafer, M; Zimmermann, K; Knablein, J; Thede, K; Faupel, T

> <Link to Ligand in BindingDB>
http://www.bindingdb.org/bind/chemsearch/marvin/MolStructure.jsp?monomerid=490529

> <Link to Ligand-Target Pair in BindingDB>
http://www.bindingdb.org/jsp/dbsearch/PrimarySearch_ki.jsp?energyterm=kJ/mole&tag=r21&monomerid=490529&enzyme=Dihydroorotate+dehydrogenase&column=ki&startPg=0&Increment=50&submit=Search

> <PubChem CID>
134474171

> <PubChem SID>
447117255

$$$$

  Mrv2115 07222212352D          

 25 27  0  0  0  0            999 V2000
    4.0668    2.3479    0.0000 C   0  0  0  0  0  0  0  0  0  0  0  0
    3.3523    1.9354    0.0000 C   0  0  0  0  0  0  0  0  0  0  0  0
    3.3523    1.1104    0.0000 C   0  0  0  0  0  0  0  0  0  0  0  0
    2.6378    0.6979    0.0000 C   0  0  0  0  0  0  0  0  0  0  0  0
    2.6378   -0.1271    0.0000 N   0  0  0  0  0  0  0  0  0  0  0  0
    3.3523   -0.5396    0.0000 C   0  0  0  0  0  0  0  0  0  0  0  0
    4.0668   -0.1271    0.0000 C   0  0  0  0  0  0  0  0  0  0  0  0
    4.7812   -0.5396    0.0000 C   0  0  0  0  0  0  0  0  0  0  0  0
    4.7812   -1.3646    0.0000 C   0  0  0  0  0  0  0  0  0  0  0  0
    5.4957   -1.7771    0.0000 C   0  0  0  0  0  0  0  0  0  0  0  0
    6.2102   -2.1896    0.0000 F   0  0  0  0  0  0  0  0  0  0  0  0
    5.9082   -1.0626    0.0000 F   0  0  0  0  0  0  0  0  0  0  0  0
    5.0832   -2.4915    0.0000 F   0  0  0  0  0  0  0  0  0  0  0  0
    4.0668   -1.7771    0.0000 C   0  0  0  0  0  0  0  0  0  0  0  0
    3.3523   -1.3646    0.0000 C   0  0  0  0  0  0  0  0  0  0  0  0
    1.9233    1.1104    0.0000 N   0  0  0  0  0  0  0  0  0  0  0  0
    1.1387    0.8555    0.0000 N   0  0  0  0  0  0  0  0  0  0  0  0
    0.6538    1.5229    0.0000 C   0  0  0  0  0  0  0  0  0  0  0  0
   -0.1712    1.5229    0.0000 C   0  0  0  0  0  0  0  0  0  0  0  0
   -0.9962    1.5229    0.0000 C   0  0  0  0  0  0  0  0  0  0  0  0
   -0.1712    2.3479    0.0000 F   0  0  0  0  0  0  0  0  0  0  0  0
   -0.1712    0.6979    0.0000 F   0  0  0  0  0  0  0  0  0  0  0  0
    1.1387    2.1904    0.0000 N   0  0  0  0  0  0  0  0  0  0  0  0
    1.9233    1.9354    0.0000 C   0  0  0  0  0  0  0  0  0  0  0  0
    2.6378    2.3479    0.0000 N   0  0  0  0  0  0  0  0  0  0  0  0
  1  2  1  0  0  0  0
  2  3  4  0  0  0  0
  3  4  4  0  0  0  0
  4  5  1  0  0  0  0
  5  6  1  0  0  0  0
  6  7  4  0  0  0  0
  7  8  4  0  0  0  0
  8  9  4  0  0  0  0
  9 10  1  0  0  0  0
 10 11  1  0  0  0  0
 10 12  1  0  0  0  0
 10 13  1  0  0  0  0
  9 14  4  0  0  0  0
 14 15  4  0  0  0  0
  6 15  4  0  0  0  0
  4 16  4  0  0  0  0
 16 17  4  0  0  0  0
 17 18  4  0  0  0  0
 18 19  1  0  0  0  0
 19 20  1  0  0  0  0
 19 21  1  0  0  0  0
 19 22  1  0  0  0  0
 18 23  4  0  0  0  0
 23 24  4  0  0  0  0
 16 24  4  0  0  0  0
 24 25  4  0  0  0  0
  2 25  4  0  0  0  0
M  END
> <IC50(uM)>
76.74999999999999

> <Outcome>
0.0

> <BindingDB ID>
50720161; 50102028; 50102031; 51292548

> <BindingDB MonomerID>
50365231

> <BindingDB Ligand Name>
CHEMBL1738786::US9238653, Table 5, Compound 7

> <Curation/DataSource>
ChEMBL

> <Article DOI>
10.1021/jm200592f; 10.1021/jm500481t; 10.1016/j.ejmech.2019.111681

> <PMID>
21696174; 24801997; 31557612

> <Patent Number>
?

> <Authors>
Coteron, JM; Marco, M; Esquivias, J; Deng, X; White, KL; White, J; Koltun, M; El Mazouni, F; Kokkonda, S; Katneni, K; Bhamidipati, R; Shackleford, DM; Angulo-Barturen, I; Ferrer, SB; Jimenez-Diaz, MB; Gamo, FJ; Goldsmith, EJ; Charman, WN; Bathurst, I; Floyd, D; Matthews, D; Burrows, JN; Rathod, PK; Charman, SA; Phillips, MA; Deng, X; Kokkonda, S; El Mazouni, F; White, J; Burrows, JN; Kaminsky, W; Charman, SA; Matthews, D; Rathod, PK; Phillips, MA; Boschi, D; Pippione, AC; Sainas, S; Lolli, ML

> <Link to Ligand in BindingDB>
http://www.bindingdb.org/bind/chemsearch/marvin/MolStructure.jsp?monomerid=50365231

> <Link to Ligand-Target Pair in BindingDB>
http://www.bindingdb.org/jsp/dbsearch/PrimarySearch_ki.jsp?energyterm=kJ/mole&tag=r21&monomerid=50365231&enzyme=Dihydroorotate+dehydrogenase&column=ki&startPg=0&Increment=50&submit=Search

> <PubChem CID>
51349276

> <PubChem SID>
136969293

$$$$

  Mrv2115 07222212352D          

 25 28  0  0  0  0            999 V2000
   -0.7145   -2.0625    0.0000 N   0  0  0  0  0  0  0  0  0  0  0  0
    0.0000   -1.6500    0.0000 C   0  0  0  0  0  0  0  0  0  0  0  0
    0.7145   -1.2375    0.0000 C   0  0  0  0  0  0  0  0  0  0  0  0
    0.7145   -0.4125    0.0000 C   0  0  0  0  0  0  0  0  0  0  0  0
    0.0000    0.0000    0.0000 C   0  0  0  0  0  0  0  0  0  0  0  0
   -0.7145   -0.4125    0.0000 C   0  0  0  0  0  0  0  0  0  0  0  0
   -1.4289    0.0000    0.0000 C   0  0  0  0  0  0  0  0  0  0  0  0
   -1.4289    0.8250    0.0000 C   0  0  0  0  0  0  0  0  0  0  0  0
   -2.1434    1.2375    0.0000 C   0  0  0  0  0  0  0  0  0  0  0  0
   -2.8579    0.8250    0.0000 C   0  0  0  0  0  0  0  0  0  0  0  0
   -3.5724    1.2375    0.0000 C   0  0  0  0  0  0  0  0  0  0  0  0
   -3.5724    2.0625    0.0000 N   0  0  0  0  0  0  0  0  0  0  0  0
   -2.8579    2.4750    0.0000 C   0  0  0  0  0  0  0  0  0  0  0  0
   -2.1434    2.0625    0.0000 C   0  0  0  0  0  0  0  0  0  0  0  0
   -0.7145    1.2375    0.0000 C   0  0  0  0  0  0  0  0  0  0  0  0
    0.0000    0.8250    0.0000 C   0  0  0  0  0  0  0  0  0  0  0  0
    1.4289    0.0000    0.0000 N   0  0  0  0  0  0  0  0  0  0  0  0
    2.1434   -0.4125    0.0000 C   0  0  0  0  0  0  0  0  0  0  0  0
    2.8579    0.0000    0.0000 C   0  0  0  0  0  0  0  0  0  0  0  0
    3.5724   -0.4125    0.0000 C   0  0  0  0  0  0  0  0  0  0  0  0
    3.5724   -1.2375    0.0000 N   0  0  0  0  0  0  0  0  0  0  0  0
    2.8579   -1.6500    0.0000 C   0  0  0  0  0  0  0  0  0  0  0  0
    2.1434   -1.2375    0.0000 C   0  0  0  0  0  0  0  0  0  0  0  0
    1.4289   -1.6500    0.0000 C   0  0  0  0  0  0  0  0  0  0  0  0
    1.4289   -2.4750    0.0000 O   0  0  0  0  0  0  0  0  0  0  0  0
  1  2  3  0  0  0  0
  2  3  1  0  0  0  0
  3  4  4  0  0  0  0
  4  5  1  0  0  0  0
  5  6  4  0  0  0  0
  6  7  4  0  0  0  0
  7  8  4  0  0  0  0
  8  9  1  0  0  0  0
  9 10  4  0  0  0  0
 10 11  4  0  0  0  0
 11 12  4  0  0  0  0
 12 13  4  0  0  0  0
 13 14  4  0  0  0  0
  9 14  4  0  0  0  0
  8 15  4  0  0  0  0
 15 16  4  0  0  0  0
  5 16  4  0  0  0  0
  4 17  4  0  0  0  0
 17 18  4  0  0  0  0
 18 19  4  0  0  0  0
 19 20  4  0  0  0  0
 20 21  4  0  0  0  0
 21 22  4  0  0  0  0
 22 23  4  0  0  0  0
 18 23  4  0  0  0  0
 23 24  4  0  0  0  0
  3 24  4  0  0  0  0
 24 25  1  0  0  0  0
M  END
> <IC50(uM)>
9.9

> <Outcome>
0.0

> <BindingDB ID>
50720828

> <BindingDB MonomerID>
50365492

> <BindingDB Ligand Name>
CHEMBL1957379

> <Curation/DataSource>
ChEMBL

> <Article DOI>
10.1016/j.bmcl.2012.01.046

> <PMID>
22321214

> <Patent Number>
?

> <Authors>
Bauer, U; Giordanetto, F; Bauer, M; O'Mahony, G; Johansson, KE; Knecht, W; Hartleib-Geschwindner, J; Carlsson, ET; Enroth, C

> <Link to Ligand in BindingDB>
http://www.bindingdb.org/bind/chemsearch/marvin/MolStructure.jsp?monomerid=50365492

> <Link to Ligand-Target Pair in BindingDB>
http://www.bindingdb.org/jsp/dbsearch/PrimarySearch_ki.jsp?energyterm=kJ/mole&tag=r21&monomerid=50365492&enzyme=Dihydroorotate+dehydrogenase&column=ki&startPg=0&Increment=50&submit=Search

> <PubChem CID>
57403545

> <PubChem SID>
136969554

$$$$

  Mrv2115 07222212352D          

 17 18  0  0  0  0            999 V2000
    1.4289    0.0000    0.0000 O   0  0  0  0  0  0  0  0  0  0  0  0
    2.1434   -0.4125    0.0000 C   0  0  0  0  0  0  0  0  0  0  0  0
    2.8579    0.0000    0.0000 O   0  0  0  0  0  0  0  0  0  0  0  0
    2.1434   -1.2375    0.0000 C   0  0  0  0  0  0  0  0  0  0  0  0
    1.4289   -1.6500    0.0000 C   0  0  0  0  0  0  0  0  0  0  0  0
    1.4289   -2.4750    0.0000 C   0  0  0  0  0  0  0  0  0  0  0  0
    2.1434   -2.8875    0.0000 C   0  0  0  0  0  0  0  0  0  0  0  0
    2.8579   -2.4750    0.0000 N   0  0  0  0  0  0  0  0  0  0  0  0
    2.8579   -1.6500    0.0000 C   0  0  0  0  0  0  0  0  0  0  0  0
    3.5724   -1.2375    0.0000 N   0  0  0  0  0  0  0  0  0  0  0  0
    4.2868   -1.6500    0.0000 C   0  0  0  0  0  0  0  0  0  0  0  0
    5.0013   -1.2375    0.0000 C   0  0  0  0  0  0  0  0  0  0  0  0
    5.7158   -1.6500    0.0000 C   0  0  0  0  0  0  0  0  0  0  0  0
    5.7158   -2.4750    0.0000 C   0  0  0  0  0  0  0  0  0  0  0  0
    6.4302   -2.8875    0.0000 F   0  0  0  0  0  0  0  0  0  0  0  0
    5.0013   -2.8875    0.0000 C   0  0  0  0  0  0  0  0  0  0  0  0
    4.2868   -2.4750    0.0000 C   0  0  0  0  0  0  0  0  0  0  0  0
  1  2  2  0  0  0  0
  2  3  1  0  0  0  0
  2  4  1  0  0  0  0
  4  5  4  0  0  0  0
  5  6  4  0  0  0  0
  6  7  4  0  0  0  0
  7  8  4  0  0  0  0
  8  9  4  0  0  0  0
  4  9  4  0  0  0  0
  9 10  1  0  0  0  0
 10 11  1  0  0  0  0
 11 12  4  0  0  0  0
 12 13  4  0  0  0  0
 13 14  4  0  0  0  0
 14 15  1  0  0  0  0
 14 16  4  0  0  0  0
 16 17  4  0  0  0  0
 11 17  4  0  0  0  0
M  END
> <IC50(uM)>
2.8

> <Outcome>
0.0

> <BindingDB ID>
50527766

> <BindingDB MonomerID>
50201610

> <BindingDB Ligand Name>
CHEMBL3916793

> <Curation/DataSource>
ChEMBL

> <Article DOI>
10.1021/acsmedchemlett.6b00316

> <PMID>
27994748

> <Patent Number>
?

> <Authors>
Lewis, TA; Sykes, DB; Law, JM; Mu??oz, B; Rustiguel, JK; Nonato, MC; Scadden, DT; Schreiber, SL

> <Link to Ligand in BindingDB>
http://www.bindingdb.org/bind/chemsearch/marvin/MolStructure.jsp?monomerid=50201610

> <Link to Ligand-Target Pair in BindingDB>
http://www.bindingdb.org/jsp/dbsearch/PrimarySearch_ki.jsp?energyterm=kJ/mole&tag=r21&monomerid=50201610&enzyme=Dihydroorotate+dehydrogenase&column=ki&startPg=0&Increment=50&submit=Search

> <PubChem CID>
14222046

> <PubChem SID>
375979401

$$$$

  Mrv2115 07222212352D          

 27 30  0  0  0  0            999 V2000
    0.0000   -1.6500    0.0000 N   0  0  0  0  0  0  0  0  0  0  0  0
    0.7145   -1.2375    0.0000 C   0  0  0  0  0  0  0  0  0  0  0  0
    0.7145   -0.4125    0.0000 C   0  0  0  0  0  0  0  0  0  0  0  0
    0.0000    0.0000    0.0000 C   0  0  0  0  0  0  0  0  0  0  0  0
   -0.7145   -0.4125    0.0000 C   0  0  0  0  0  0  0  0  0  0  0  0
   -1.4289    0.0000    0.0000 C   0  0  0  0  0  0  0  0  0  0  0  0
   -1.4289    0.8250    0.0000 C   0  0  0  0  0  0  0  0  0  0  0  0
   -2.1434    1.2375    0.0000 C   0  0  0  0  0  0  0  0  0  0  0  0
   -2.8579    0.8250    0.0000 C   0  0  0  0  0  0  0  0  0  0  0  0
   -3.5724    1.2375    0.0000 C   0  0  0  0  0  0  0  0  0  0  0  0
   -3.5724    2.0625    0.0000 C   0  0  0  0  0  0  0  0  0  0  0  0
   -2.8579    2.4750    0.0000 C   0  0  0  0  0  0  0  0  0  0  0  0
   -2.1434    2.0625    0.0000 C   0  0  0  0  0  0  0  0  0  0  0  0
   -0.7145    1.2375    0.0000 C   0  0  0  0  0  0  0  0  0  0  0  0
    0.0000    0.8250    0.0000 C   0  0  0  0  0  0  0  0  0  0  0  0
    1.4289    0.0000    0.0000 N   0  0  0  0  0  0  0  0  0  0  0  0
    2.1434   -0.4125    0.0000 C   0  0  0  0  0  0  0  0  0  0  0  0
    2.8579    0.0000    0.0000 C   0  0  0  0  0  0  0  0  0  0  0  0
    3.5724   -0.4125    0.0000 C   0  0  0  0  0  0  0  0  0  0  0  0
    3.5724   -1.2375    0.0000 C   0  0  0  0  0  0  0  0  0  0  0  0
    4.2868   -1.6500    0.0000 F   0  0  0  0  0  0  0  0  0  0  0  0
    2.8579   -1.6500    0.0000 C   0  0  0  0  0  0  0  0  0  0  0  0
    2.1434   -1.2375    0.0000 C   0  0  0  0  0  0  0  0  0  0  0  0
    1.4289   -1.6500    0.0000 C   0  0  0  0  0  0  0  0  0  0  0  0
    1.4289   -2.4750    0.0000 C   0  0  0  0  0  0  0  0  0  0  0  0
    0.7145   -2.8875    0.0000 O   0  0  0  0  0  0  0  0  0  0  0  0
    2.1434   -2.8875    0.0000 O   0  0  0  0  0  0  0  0  0  0  0  0
  1  2  1  0  0  0  0
  2  3  4  0  0  0  0
  3  4  1  0  0  0  0
  4  5  4  0  0  0  0
  5  6  4  0  0  0  0
  6  7  4  0  0  0  0
  7  8  1  0  0  0  0
  8  9  4  0  0  0  0
  9 10  4  0  0  0  0
 10 11  4  0  0  0  0
 11 12  4  0  0  0  0
 12 13  4  0  0  0  0
  8 13  4  0  0  0  0
  7 14  4  0  0  0  0
 14 15  4  0  0  0  0
  4 15  4  0  0  0  0
  3 16  4  0  0  0  0
 16 17  4  0  0  0  0
 17 18  4  0  0  0  0
 18 19  4  0  0  0  0
 19 20  4  0  0  0  0
 20 21  1  0  0  0  0
 20 22  4  0  0  0  0
 22 23  4  0  0  0  0
 17 23  4  0  0  0  0
 23 24  4  0  0  0  0
  2 24  4  0  0  0  0
 24 25  1  0  0  0  0
 25 26  2  0  0  0  0
 25 27  1  0  0  0  0
M  END
> <IC50(uM)>
0.012

> <Outcome>
1.0

> <BindingDB ID>
50841885

> <BindingDB MonomerID>
50201918

> <BindingDB Ligand Name>
3-amino-2-biphenyl-4-yl-6-fluoro-quinoline-4-carboxylic acid::CHEMBL218249

> <Curation/DataSource>
ChEMBL

> <Article DOI>
10.1021/jm0602256

> <PMID>
17201408

> <Patent Number>
?

> <Authors>
Kaila, N; Janz, K; DeBernardo, S; Bedard, PW; Camphausen, RT; Tam, S; Tsao, DH; Keith, JC; Nickerson-Nutter, C; Shilling, A; Young-Sciame, R; Wang, Q

> <Link to Ligand in BindingDB>
http://www.bindingdb.org/bind/chemsearch/marvin/MolStructure.jsp?monomerid=50201918

> <Link to Ligand-Target Pair in BindingDB>
http://www.bindingdb.org/jsp/dbsearch/PrimarySearch_ki.jsp?energyterm=kJ/mole&tag=r21&monomerid=50201918&enzyme=Dihydroorotate+dehydrogenase&column=ki&startPg=0&Increment=50&submit=Search

> <PubChem CID>
131419

> <PubChem SID>
104081569

$$$$

  Mrv2115 07222212352D          

 32 35  0  0  0  0            999 V2000
    0.7145   -2.8875    0.0000 C   0  0  0  0  0  0  0  0  0  0  0  0
    0.0000   -2.4750    0.0000 C   0  0  0  0  0  0  0  0  0  0  0  0
   -0.7145   -2.8875    0.0000 C   0  0  0  0  0  0  0  0  0  0  0  0
   -1.4289   -2.4750    0.0000 C   0  0  0  0  0  0  0  0  0  0  0  0
   -1.4289   -1.6500    0.0000 C   0  0  0  0  0  0  0  0  0  0  0  0
   -0.7145   -1.2375    0.0000 C   0  0  0  0  0  0  0  0  0  0  0  0
    0.0000   -1.6500    0.0000 C   0  0  0  0  0  0  0  0  0  0  0  0
    0.7145   -1.2375    0.0000 C   0  0  0  0  0  0  0  0  0  0  0  0
    0.7145   -0.4125    0.0000 C   0  0  0  0  0  0  0  0  0  0  0  0
    1.4289    0.0000    0.0000 C   0  0  0  0  0  0  0  0  0  0  0  0
    1.4289    0.8250    0.0000 C   0  0  0  0  0  0  0  0  0  0  0  0
    2.1434    1.2375    0.0000 C   0  0  0  0  0  0  0  0  0  0  0  0
    0.7145    1.2375    0.0000 C   0  0  0  0  0  0  0  0  0  0  0  0
    2.1434   -0.4125    0.0000 C   0  0  0  0  0  0  0  0  0  0  0  0
    2.8579    0.0000    0.0000 C   0  0  0  0  0  0  0  0  0  0  0  0
    3.5724   -0.4125    0.0000 C   0  0  0  0  0  0  0  0  0  0  0  0
    4.2868   -0.0000    0.0000 C   0  0  0  0  0  0  0  0  0  0  0  0
    4.3731    0.8205    0.0000 C   0  0  0  0  0  0  0  0  0  0  0  0
    5.1800    0.9920    0.0000 N   0  0  0  0  0  0  0  0  0  0  0  0
    5.5156    1.7457    0.0000 C   0  0  0  0  0  0  0  0  0  0  0  0
    5.5925    0.2775    0.0000 C   0  0  0  0  0  0  0  0  0  0  0  0
    6.4130    0.1913    0.0000 C   0  0  0  0  0  0  0  0  0  0  0  0
    7.2335    0.1051    0.0000 C   0  0  0  0  0  0  0  0  0  0  0  0
    6.3268   -0.6292    0.0000 C   0  0  0  0  0  0  0  0  0  0  0  0
    6.4993    1.0118    0.0000 O   0  0  0  0  0  0  0  0  0  0  0  0
    5.0405   -0.3356    0.0000 N   0  0  0  0  0  0  0  0  0  0  0  0
    3.5724   -1.2375    0.0000 C   0  0  0  0  0  0  0  0  0  0  0  0
    4.2868   -1.6500    0.0000 F   0  0  0  0  0  0  0  0  0  0  0  0
    2.8579   -1.6500    0.0000 C   0  0  0  0  0  0  0  0  0  0  0  0
    2.1434   -1.2375    0.0000 N   0  0  0  0  0  0  0  0  0  0  0  0
    1.4289   -1.6500    0.0000 C   0  0  0  0  0  0  0  0  0  0  0  0
    1.4289   -2.4750    0.0000 O   0  0  0  0  0  0  0  0  0  0  0  0
  1  2  1  0  0  0  0
  2  3  4  0  0  0  0
  3  4  4  0  0  0  0
  4  5  4  0  0  0  0
  5  6  4  0  0  0  0
  6  7  4  0  0  0  0
  2  7  4  0  0  0  0
  7  8  1  0  0  0  0
  8  9  4  0  0  0  0
  9 10  4  0  0  0  0
 10 11  1  0  0  0  0
 11 12  1  0  0  0  0
 11 13  1  0  0  0  0
 10 14  4  0  0  0  0
 14 15  4  0  0  0  0
 15 16  4  0  0  0  0
 16 17  1  0  0  0  0
 17 18  4  0  0  0  0
 18 19  4  0  0  0  0
 19 20  1  0  0  0  0
 19 21  4  0  0  0  0
 21 22  1  0  0  0  0
 22 23  1  0  0  0  0
 22 24  1  0  0  0  0
 22 25  1  0  0  0  0
 21 26  4  0  0  0  0
 17 26  4  0  0  0  0
 16 27  4  0  0  0  0
 27 28  1  0  0  0  0
 27 29  4  0  0  0  0
 29 30  4  0  0  0  0
 14 30  4  0  0  0  0
 30 31  4  0  0  0  0
  8 31  4  0  0  0  0
 31 32  2  0  0  0  0
M  END
> <IC50(uM)>
0.00211

> <Outcome>
1.0

> <BindingDB ID>
1121398

> <BindingDB MonomerID>
530464

> <BindingDB Ligand Name>
7-Fluoro-8-(2-(2-hydroxypropan-2-yl)-1-methyl-1H-imidazol-4-yl)-1-isopropyl-3- (o-tolyl)-4H-quinolizin-4-one.::WO2022070071, Example 1

> <Curation/DataSource>
Curated from the literature by BindingDB

> <Article DOI>
?

> <PMID>
WO2022070071

> <Patent Number>
?

> <Authors>
Lindsey, D; Scott, K

> <Link to Ligand in BindingDB>
http://www.bindingdb.org/bind/chemsearch/marvin/MolStructure.jsp?monomerid=530464

> <Link to Ligand-Target Pair in BindingDB>
http://www.bindingdb.org/jsp/dbsearch/PrimarySearch_ki.jsp?energyterm=kJ/mole&tag=r21&monomerid=530464&enzyme=Dihydroorotate+dehydrogenase&column=ki&startPg=0&Increment=50&submit=Search

> <PubChem CID>
?

> <PubChem SID>
?

$$$$

  Mrv2115 07222212352D          

 37 41  0  0  0  0            999 V2000
    4.0668    2.3479    0.0000 C   0  0  0  0  0  0  0  0  0  0  0  0
    3.3523    1.9354    0.0000 C   0  0  0  0  0  0  0  0  0  0  0  0
    3.3523    1.1104    0.0000 C   0  0  0  0  0  0  0  0  0  0  0  0
    2.6378    0.6979    0.0000 C   0  0  0  0  0  0  0  0  0  0  0  0
    2.6378   -0.1271    0.0000 C   0  0  0  0  0  0  0  0  0  0  0  0
    1.9233   -0.5396    0.0000 O   0  0  0  0  0  0  0  0  0  0  0  0
    3.3523   -0.5396    0.0000 O   0  0  0  0  0  0  0  0  0  0  0  0
    1.9233    1.1104    0.0000 C   0  0  0  0  0  0  0  0  0  0  0  0
    1.1387    0.8555    0.0000 N   0  0  0  0  0  0  0  0  0  0  0  0
    0.6538    1.5229    0.0000 C   0  0  0  0  0  0  0  0  0  0  0  0
   -0.1712    1.5229    0.0000 C   0  0  0  0  0  0  0  0  0  0  0  0
   -0.5837    0.8085    0.0000 C   0  0  0  0  0  0  0  0  0  0  0  0
   -0.1712    0.0940    0.0000 F   0  0  0  0  0  0  0  0  0  0  0  0
   -1.4087    0.8085    0.0000 C   0  0  0  0  0  0  0  0  0  0  0  0
   -1.8212    0.0940    0.0000 F   0  0  0  0  0  0  0  0  0  0  0  0
   -1.8212    1.5229    0.0000 C   0  0  0  0  0  0  0  0  0  0  0  0
   -2.6462    1.5229    0.0000 C   0  0  0  0  0  0  0  0  0  0  0  0
   -3.0587    0.8085    0.0000 C   0  0  0  0  0  0  0  0  0  0  0  0
   -3.8837    0.8085    0.0000 C   0  0  0  0  0  0  0  0  0  0  0  0
   -4.2962    1.5229    0.0000 C   0  0  0  0  0  0  0  0  0  0  0  0
   -5.1212    1.5229    0.0000 O   0  0  0  0  0  0  0  0  0  0  0  0
   -5.5337    0.8085    0.0000 C   0  0  0  0  0  0  0  0  0  0  0  0
   -6.3587    0.8085    0.0000 C   0  0  0  0  0  0  0  0  0  0  0  0
   -6.7712    0.0940    0.0000 C   0  0  0  0  0  0  0  0  0  0  0  0
   -7.5962    0.0940    0.0000 C   0  0  0  0  0  0  0  0  0  0  0  0
   -8.0087    0.8085    0.0000 C   0  0  0  0  0  0  0  0  0  0  0  0
   -7.5962    1.5229    0.0000 C   0  0  0  0  0  0  0  0  0  0  0  0
   -6.7712    1.5229    0.0000 C   0  0  0  0  0  0  0  0  0  0  0  0
   -3.8837    2.2374    0.0000 C   0  0  0  0  0  0  0  0  0  0  0  0
   -3.0587    2.2374    0.0000 C   0  0  0  0  0  0  0  0  0  0  0  0
   -1.4087    2.2374    0.0000 C   0  0  0  0  0  0  0  0  0  0  0  0
   -1.8212    2.9519    0.0000 F   0  0  0  0  0  0  0  0  0  0  0  0
   -0.5837    2.2374    0.0000 C   0  0  0  0  0  0  0  0  0  0  0  0
   -0.1712    2.9519    0.0000 F   0  0  0  0  0  0  0  0  0  0  0  0
    1.1387    2.1904    0.0000 N   0  0  0  0  0  0  0  0  0  0  0  0
    1.9233    1.9354    0.0000 C   0  0  0  0  0  0  0  0  0  0  0  0
    2.6378    2.3479    0.0000 C   0  0  0  0  0  0  0  0  0  0  0  0
  1  2  1  0  0  0  0
  2  3  4  0  0  0  0
  3  4  4  0  0  0  0
  4  5  1  0  0  0  0
  5  6  2  0  0  0  0
  5  7  1  0  0  0  0
  4  8  4  0  0  0  0
  8  9  4  0  0  0  0
  9 10  4  0  0  0  0
 10 11  1  0  0  0  0
 11 12  4  0  0  0  0
 12 13  1  0  0  0  0
 12 14  4  0  0  0  0
 14 15  1  0  0  0  0
 14 16  4  0  0  0  0
 16 17  1  0  0  0  0
 17 18  4  0  0  0  0
 18 19  4  0  0  0  0
 19 20  4  0  0  0  0
 20 21  1  0  0  0  0
 21 22  1  0  0  0  0
 22 23  1  0  0  0  0
 23 24  4  0  0  0  0
 24 25  4  0  0  0  0
 25 26  4  0  0  0  0
 26 27  4  0  0  0  0
 27 28  4  0  0  0  0
 23 28  4  0  0  0  0
 20 29  4  0  0  0  0
 29 30  4  0  0  0  0
 17 30  4  0  0  0  0
 16 31  4  0  0  0  0
 31 32  1  0  0  0  0
 31 33  4  0  0  0  0
 11 33  4  0  0  0  0
 33 34  1  0  0  0  0
 10 35  4  0  0  0  0
 35 36  4  0  0  0  0
  8 36  4  0  0  0  0
 36 37  4  0  0  0  0
  2 37  4  0  0  0  0
M  STY  1   1 DAT
M  SAL   1  1  35
M  SDT   1 MRV_IMPLICIT_H                                        
M  SDD   1     0.5304   -0.4125    DR    ALL  0       0  
M  SED   1 IMPL_H1
M  END
> <IC50(uM)>
0.048

> <Outcome>
1.0

> <BindingDB ID>
297829

> <BindingDB MonomerID>
155485

> <BindingDB Ligand Name>
US9006454, I127

> <Curation/DataSource>
US Patent

> <Article DOI>
?

> <PMID>
?

> <Patent Number>
US9006454

> <Authors>
Thunuguntla, SS; Subramanya, H; Kunnam, SR; Sanivaru Vijay, SR; Bingi, C; Kusanur, R; Schwarz, M; Arlt, M

> <Link to Ligand in BindingDB>
http://www.bindingdb.org/bind/chemsearch/marvin/MolStructure.jsp?monomerid=155485

> <Link to Ligand-Target Pair in BindingDB>
http://www.bindingdb.org/jsp/dbsearch/PrimarySearch_ki.jsp?energyterm=kJ/mole&tag=r21&monomerid=155485&enzyme=Dihydroorotate+dehydrogenase&column=ki&startPg=0&Increment=50&submit=Search

> <PubChem CID>
58073795

> <PubChem SID>
253658422

$$$$

  Mrv2115 07222212352D          

 26 29  0  0  0  0            999 V2000
    6.8513   -2.4750    0.0000 C   0  0  0  0  0  0  0  0  0  0  0  0
    6.1368   -2.8875    0.0000 C   0  0  0  0  0  0  0  0  0  0  0  0
    6.1368   -3.7125    0.0000 C   0  0  0  0  0  0  0  0  0  0  0  0
    5.4223   -4.1250    0.0000 C   0  0  0  0  0  0  0  0  0  0  0  0
    5.4223   -4.9500    0.0000 N   0  0  0  0  0  0  0  0  0  0  0  0
    6.1368   -5.3625    0.0000 C   0  0  0  0  0  0  0  0  0  0  0  0
    6.8513   -4.9500    0.0000 C   0  0  0  0  0  0  0  0  0  0  0  0
    7.5658   -5.3625    0.0000 C   0  0  0  0  0  0  0  0  0  0  0  0
    7.5658   -6.1875    0.0000 C   0  0  0  0  0  0  0  0  0  0  0  0
    8.2802   -6.6000    0.0000 C   0  0  0  0  0  0  0  0  0  0  0  0
    8.2802   -7.4250    0.0000 C   0  0  0  0  0  0  0  0  0  0  0  0
    8.9947   -7.8375    0.0000 F   0  0  0  0  0  0  0  0  0  0  0  0
    7.5658   -7.8375    0.0000 C   0  0  0  0  0  0  0  0  0  0  0  0
    6.8513   -7.4250    0.0000 C   0  0  0  0  0  0  0  0  0  0  0  0
    6.8513   -6.6000    0.0000 C   0  0  0  0  0  0  0  0  0  0  0  0
    6.1368   -6.1875    0.0000 C   0  0  0  0  0  0  0  0  0  0  0  0
    4.7079   -3.7125    0.0000 N   0  0  0  0  0  0  0  0  0  0  0  0
    3.9232   -3.9674    0.0000 N   0  0  0  0  0  0  0  0  0  0  0  0
    3.4383   -3.3000    0.0000 C   0  0  0  0  0  0  0  0  0  0  0  0
    2.6133   -3.3000    0.0000 C   0  0  0  0  0  0  0  0  0  0  0  0
    1.7883   -3.3000    0.0000 C   0  0  0  0  0  0  0  0  0  0  0  0
    2.6133   -2.4750    0.0000 F   0  0  0  0  0  0  0  0  0  0  0  0
    2.6133   -4.1250    0.0000 F   0  0  0  0  0  0  0  0  0  0  0  0
    3.9232   -2.6326    0.0000 N   0  0  0  0  0  0  0  0  0  0  0  0
    4.7079   -2.8875    0.0000 C   0  0  0  0  0  0  0  0  0  0  0  0
    5.4223   -2.4750    0.0000 N   0  0  0  0  0  0  0  0  0  0  0  0
  1  2  1  0  0  0  0
  2  3  4  0  0  0  0
  3  4  4  0  0  0  0
  4  5  1  0  0  0  0
  5  6  1  0  0  0  0
  6  7  1  0  0  0  0
  7  8  1  0  0  0  0
  8  9  1  0  0  0  0
  9 10  4  0  0  0  0
 10 11  4  0  0  0  0
 11 12  1  0  0  0  0
 11 13  4  0  0  0  0
 13 14  4  0  0  0  0
 14 15  4  0  0  0  0
  9 15  4  0  0  0  0
 15 16  1  0  0  0  0
  6 16  1  0  0  0  0
  4 17  4  0  0  0  0
 17 18  4  0  0  0  0
 18 19  4  0  0  0  0
 19 20  1  0  0  0  0
 20 21  1  0  0  0  0
 20 22  1  0  0  0  0
 20 23  1  0  0  0  0
 19 24  4  0  0  0  0
 24 25  4  0  0  0  0
 17 25  4  0  0  0  0
 25 26  4  0  0  0  0
  2 26  4  0  0  0  0
M  END
> <IC50(uM)>
100.0

> <Outcome>
0.0

> <BindingDB ID>
51372994

> <BindingDB MonomerID>
50555369

> <BindingDB Ligand Name>
CHEMBL4740960

> <Curation/DataSource>
ChEMBL

> <Article DOI>
?

> <PMID>
27127993

> <Patent Number>
?

> <Authors>
Kokkonda, S; Deng, X; White, KL; Coteron, JM; Marco, M; de Las Heras, L; White, J; El Mazouni, F; Tomchick, DR; Manjalanagara, K; Rudra, KR; Chen, G; Morizzi, J; Ryan, E; Kaminsky, W; Leroy, D; Mart??nez-Mart??nez, MS; Jimenez-Diaz, MB; Bazaga, SF; Angulo-Barturen, I; Waterson, D; Burrows, JN; Matthews, D; Charman, SA; Phillips, MA; Rathod, PK

> <Link to Ligand in BindingDB>
http://www.bindingdb.org/bind/chemsearch/marvin/MolStructure.jsp?monomerid=50555369

> <Link to Ligand-Target Pair in BindingDB>
http://www.bindingdb.org/jsp/dbsearch/PrimarySearch_ki.jsp?energyterm=kJ/mole&tag=r21&monomerid=50555369&enzyme=Dihydroorotate+dehydrogenase&column=ki&startPg=0&Increment=50&submit=Search

> <PubChem CID>
162647387

> <PubChem SID>
461694137

$$$$

  Mrv2115 07222212352D          

 25 27  0  0  0  0            999 V2000
   -0.7145    1.2375    0.0000 C   0  0  0  0  0  0  0  0  0  0  0  0
    0.0000    0.8250    0.0000 C   0  0  0  0  0  0  0  0  0  0  0  0
    0.0000   -0.0000    0.0000 O   0  0  0  0  0  0  0  0  0  0  0  0
    0.7145   -0.4125    0.0000 C   0  0  0  0  0  0  0  0  0  0  0  0
    1.4289   -0.0000    0.0000 O   0  0  0  0  0  0  0  0  0  0  0  0
    0.7145   -1.2375    0.0000 C   0  0  0  0  0  0  0  0  0  0  0  0
    1.3819   -1.7224    0.0000 S   0  0  0  0  0  0  0  0  0  0  0  0
    1.1270   -2.5070    0.0000 C   0  0  0  0  0  0  0  0  0  0  0  0
    1.6119   -3.1745    0.0000 N   0  0  0  0  0  0  0  0  0  0  0  0
    1.2763   -3.9282    0.0000 C   0  0  0  0  0  0  0  0  0  0  0  0
    1.7613   -4.5956    0.0000 C   0  0  0  0  0  0  0  0  0  0  0  0
    1.4257   -5.3493    0.0000 C   0  0  0  0  0  0  0  0  0  0  0  0
    0.6052   -5.4355    0.0000 C   0  0  0  0  0  0  0  0  0  0  0  0
    0.2697   -6.1892    0.0000 C   0  0  0  0  0  0  0  0  0  0  0  0
    0.1203   -4.7681    0.0000 C   0  0  0  0  0  0  0  0  0  0  0  0
   -0.7002   -4.8543    0.0000 Cl  0  0  0  0  0  0  0  0  0  0  0  0
    0.4559   -4.0144    0.0000 C   0  0  0  0  0  0  0  0  0  0  0  0
    0.3020   -2.5070    0.0000 N   0  0  0  0  0  0  0  0  0  0  0  0
    0.0470   -1.7224    0.0000 C   0  0  0  0  0  0  0  0  0  0  0  0
   -0.7376   -1.4675    0.0000 C   0  0  0  0  0  0  0  0  0  0  0  0
   -1.3507   -2.0195    0.0000 C   0  0  0  0  0  0  0  0  0  0  0  0
   -2.1353   -1.7646    0.0000 C   0  0  0  0  0  0  0  0  0  0  0  0
   -2.3068   -0.9576    0.0000 C   0  0  0  0  0  0  0  0  0  0  0  0
   -1.6937   -0.4056    0.0000 C   0  0  0  0  0  0  0  0  0  0  0  0
   -0.9091   -0.6605    0.0000 C   0  0  0  0  0  0  0  0  0  0  0  0
  1  2  1  0  0  0  0
  2  3  1  0  0  0  0
  3  4  1  0  0  0  0
  4  5  2  0  0  0  0
  4  6  1  0  0  0  0
  6  7  4  0  0  0  0
  7  8  4  0  0  0  0
  8  9  1  0  0  0  0
  9 10  1  0  0  0  0
 10 11  4  0  0  0  0
 11 12  4  0  0  0  0
 12 13  4  0  0  0  0
 13 14  1  0  0  0  0
 13 15  4  0  0  0  0
 15 16  1  0  0  0  0
 15 17  4  0  0  0  0
 10 17  4  0  0  0  0
  8 18  4  0  0  0  0
 18 19  4  0  0  0  0
  6 19  4  0  0  0  0
 19 20  1  0  0  0  0
 20 21  4  0  0  0  0
 21 22  4  0  0  0  0
 22 23  4  0  0  0  0
 23 24  4  0  0  0  0
 24 25  4  0  0  0  0
 20 25  4  0  0  0  0
M  END
> <IC50(uM)>
0.035

> <Outcome>
1.0

> <BindingDB ID>
50312269

> <BindingDB MonomerID>
50071622

> <BindingDB Ligand Name>
CHEMBL3410596

> <Curation/DataSource>
ChEMBL

> <Article DOI>
10.1021/jm501127s

> <PMID>
25580811

> <Patent Number>
?

> <Authors>
Zhu, J; Han, L; Diao, Y; Ren, X; Xu, M; Xu, L; Li, S; Li, Q; Dong, D; Huang, J; Liu, X; Zhao, Z; Wang, R; Zhu, L; Xu, Y; Qian, X; Li, H

> <Link to Ligand in BindingDB>
http://www.bindingdb.org/bind/chemsearch/marvin/MolStructure.jsp?monomerid=50071622

> <Link to Ligand-Target Pair in BindingDB>
http://www.bindingdb.org/jsp/dbsearch/PrimarySearch_ki.jsp?energyterm=kJ/mole&tag=r21&monomerid=50071622&enzyme=Dihydroorotate+dehydrogenase&column=ki&startPg=0&Increment=50&submit=Search

> <PubChem CID>
91995955

> <PubChem SID>
313072554

$$$$

  Mrv2115 07222212352D          

 35 38  0  0  0  0            999 V2000
    0.8826   11.8865    0.0000 C   0  0  0  0  0  0  0  0  0  0  0  0
    1.7031   11.8002    0.0000 C   0  0  0  0  0  0  0  0  0  0  0  0
    2.1880   12.4677    0.0000 C   0  0  0  0  0  0  0  0  0  0  0  0
    3.0085   12.3814    0.0000 C   0  0  0  0  0  0  0  0  0  0  0  0
    3.3440   11.6278    0.0000 C   0  0  0  0  0  0  0  0  0  0  0  0
    2.8591   10.9603    0.0000 C   0  0  0  0  0  0  0  0  0  0  0  0
    3.1947   10.2066    0.0000 F   0  0  0  0  0  0  0  0  0  0  0  0
    2.0386   11.0466    0.0000 C   0  0  0  0  0  0  0  0  0  0  0  0
    1.5537   10.3791    0.0000 N   0  0  0  0  0  0  0  0  0  0  0  0
    1.8893    9.6254    0.0000 C   0  0  0  0  0  0  0  0  0  0  0  0
    2.7097    9.5392    0.0000 O   0  0  0  0  0  0  0  0  0  0  0  0
    1.4043    8.9580    0.0000 C   0  0  0  0  0  0  0  0  0  0  0  0
    1.7399    8.2043    0.0000 C   0  0  0  0  0  0  0  0  0  0  0  0
    1.2550    7.5369    0.0000 C   0  0  0  0  0  0  0  0  0  0  0  0
    1.5905    6.7832    0.0000 F   0  0  0  0  0  0  0  0  0  0  0  0
    0.4345    7.6231    0.0000 C   0  0  0  0  0  0  0  0  0  0  0  0
   -0.0504    6.9557    0.0000 N   0  0  0  0  0  0  0  0  0  0  0  0
   -0.8754    6.9557    0.0000 N   0  0  0  0  0  0  0  0  0  0  0  0
   -1.1304    6.1711    0.0000 C   0  0  0  0  0  0  0  0  0  0  0  0
   -1.9150    5.9161    0.0000 C   0  0  0  0  0  0  0  0  0  0  0  0
   -0.4629    5.6861    0.0000 N   0  0  0  0  0  0  0  0  0  0  0  0
   -0.4629    4.8611    0.0000 C   0  0  0  0  0  0  0  0  0  0  0  0
   -0.0504    4.1467    0.0000 C   0  0  0  0  0  0  0  0  0  0  0  0
   -0.8754    4.1467    0.0000 C   0  0  0  0  0  0  0  0  0  0  0  0
    0.2045    6.1711    0.0000 C   0  0  0  0  0  0  0  0  0  0  0  0
    0.9891    5.9161    0.0000 O   0  0  0  0  0  0  0  0  0  0  0  0
    0.0989    8.3768    0.0000 C   0  0  0  0  0  0  0  0  0  0  0  0
    0.5839    9.0442    0.0000 C   0  0  0  0  0  0  0  0  0  0  0  0
    0.2483    9.7979    0.0000 O   0  0  0  0  0  0  0  0  0  0  0  0
   -0.5722    9.8842    0.0000 C   0  0  0  0  0  0  0  0  0  0  0  0
   -1.0571    9.2167    0.0000 C   0  0  0  0  0  0  0  0  0  0  0  0
   -0.9077   10.6378    0.0000 C   0  0  0  0  0  0  0  0  0  0  0  0
   -0.1541   10.9734    0.0000 F   0  0  0  0  0  0  0  0  0  0  0  0
   -1.6614   10.3023    0.0000 F   0  0  0  0  0  0  0  0  0  0  0  0
   -1.2433   11.3915    0.0000 F   0  0  0  0  0  0  0  0  0  0  0  0
  1  2  1  0  0  0  0
  2  3  4  0  0  0  0
  3  4  4  0  0  0  0
  4  5  4  0  0  0  0
  5  6  4  0  0  0  0
  6  7  1  0  0  0  0
  6  8  4  0  0  0  0
  2  8  4  0  0  0  0
  8  9  1  0  0  0  0
  9 10  1  0  0  0  0
 10 11  2  0  0  0  0
 10 12  1  0  0  0  0
 12 13  4  0  0  0  0
 13 14  4  0  0  0  0
 14 15  1  0  0  0  0
 14 16  4  0  0  0  0
 16 17  1  0  0  0  0
 17 18  4  0  0  0  0
 18 19  4  0  0  0  0
 19 20  1  0  0  0  0
 19 21  4  0  0  0  0
 21 22  1  0  0  0  0
 22 23  1  0  0  0  0
 23 24  1  0  0  0  0
 22 24  1  0  0  0  0
 21 25  4  0  0  0  0
 17 25  4  0  0  0  0
 25 26  2  0  0  0  0
 16 27  4  0  0  0  0
 27 28  4  0  0  0  0
 12 28  4  0  0  0  0
 28 29  1  0  0  0  0
 29 30  1  0  0  0  0
 30 31  1  0  0  0  0
 30 32  1  0  0  0  0
 32 33  1  0  0  0  0
 32 34  1  0  0  0  0
 32 35  1  0  0  0  0
M  END
> <IC50(uM)>
0.044

> <Outcome>
1.0

> <BindingDB ID>
1098677; 972523

> <BindingDB MonomerID>
470398

> <BindingDB Ligand Name>
4-(4-cyclopropyl-3-methyl-5-oxo-4,5-dihydro-1H-1,2,4-triazol-1-yl)-5-fluoro-N-(2-fluoro-6-methylphenyl)-2-{[(2S)-1,1,1-trifluoropropan-2-yl]oxy}benzamide::US10815215, Example 57::US11130745, Example 57; 4-(4-cyclopropyl-3-methyl-5-oxo-4,5-dihydro-1H-1,2,4-triazol-1-yl)-5-fluoro-N-(2-fluoro-6-methylphenyl)-2-{[(2S)-1,1,1-trifluoropropan-2-yl]oxy}benzamide::US10815215, Example 57

> <Curation/DataSource>
US Patent

> <Article DOI>
?

> <PMID>
?

> <Patent Number>
US11130745; US10815215

> <Authors>
Gradl, SN; Nguyen, D; Eis, K; Gunther, J; Stellfeld, T; Janzer, A; Christian, S; Muller, T; Sheikh, SE; Sykes, DB; Ferrara, SJ; Krober, M; Merz, C; Niehues, M; Schafer, M; Zimmermann, K; Nising, CF; Gradl, SN; Nguyen, D; Eis, K; Gunther, J; Stellfeld, T; Janzer, A; Christian, S; Muller, T; Sheikh, SE; Zhou, HJ; Zhao, C; Sykes, DB; Ferrara, SJ; Liu, K; Krober, M; Merz, C; Niehues, M; Schafer, M; Zimmermann, K; Nising, CF

> <Link to Ligand in BindingDB>
http://www.bindingdb.org/bind/chemsearch/marvin/MolStructure.jsp?monomerid=470398

> <Link to Ligand-Target Pair in BindingDB>
http://www.bindingdb.org/jsp/dbsearch/PrimarySearch_ki.jsp?energyterm=kJ/mole&tag=r21&monomerid=470398&enzyme=Dihydroorotate+dehydrogenase&column=ki&startPg=0&Increment=50&submit=Search

> <PubChem CID>
134470023

> <PubChem SID>
441609575

$$$$

  Mrv2115 07222212352D          

 36 38  0  0  0  0            999 V2000
    2.1434   -3.7125    0.0000 C   0  0  0  0  0  0  0  0  0  0  0  0
    1.4289   -4.1250    0.0000 C   0  0  0  0  0  0  0  0  0  0  0  0
    1.4289   -4.9500    0.0000 N   0  0  0  0  0  0  0  0  0  0  0  0
    0.7615   -5.4349    0.0000 C   0  0  0  0  0  0  0  0  0  0  0  0
   -0.0231   -5.1800    0.0000 C   0  0  0  0  0  0  0  0  0  0  0  0
   -0.1946   -4.3730    0.0000 O   0  0  0  0  0  0  0  0  0  0  0  0
    1.0164   -6.2195    0.0000 N   0  0  0  0  0  0  0  0  0  0  0  0
    1.8414   -6.2195    0.0000 N   0  0  0  0  0  0  0  0  0  0  0  0
    2.3264   -6.8870    0.0000 C   0  0  0  0  0  0  0  0  0  0  0  0
    3.1468   -6.8007    0.0000 C   0  0  0  0  0  0  0  0  0  0  0  0
    3.6318   -7.4682    0.0000 C   0  0  0  0  0  0  0  0  0  0  0  0
    4.4522   -7.3820    0.0000 O   0  0  0  0  0  0  0  0  0  0  0  0
    4.7878   -6.6283    0.0000 C   0  0  0  0  0  0  0  0  0  0  0  0
    4.3029   -5.9608    0.0000 C   0  0  0  0  0  0  0  0  0  0  0  0
    5.6083   -6.5420    0.0000 C   0  0  0  0  0  0  0  0  0  0  0  0
    5.6945   -7.3625    0.0000 F   0  0  0  0  0  0  0  0  0  0  0  0
    5.5221   -5.7216    0.0000 F   0  0  0  0  0  0  0  0  0  0  0  0
    6.4288   -6.4558    0.0000 F   0  0  0  0  0  0  0  0  0  0  0  0
    3.2962   -8.2219    0.0000 C   0  0  0  0  0  0  0  0  0  0  0  0
    3.7811   -8.8893    0.0000 C   0  0  0  0  0  0  0  0  0  0  0  0
    3.4456   -9.6430    0.0000 O   0  0  0  0  0  0  0  0  0  0  0  0
    4.6016   -8.8031    0.0000 N   0  0  0  0  0  0  0  0  0  0  0  0
    5.0865   -9.4705    0.0000 C   0  0  0  0  0  0  0  0  0  0  0  0
    5.9070   -9.3843    0.0000 C   0  0  0  0  0  0  0  0  0  0  0  0
    6.2426   -8.6306    0.0000 F   0  0  0  0  0  0  0  0  0  0  0  0
    6.3919  -10.0517    0.0000 C   0  0  0  0  0  0  0  0  0  0  0  0
    6.0564  -10.8054    0.0000 C   0  0  0  0  0  0  0  0  0  0  0  0
    6.5413  -11.4728    0.0000 O   0  0  0  0  0  0  0  0  0  0  0  0
    5.2359  -10.8916    0.0000 C   0  0  0  0  0  0  0  0  0  0  0  0
    4.7510  -10.2242    0.0000 C   0  0  0  0  0  0  0  0  0  0  0  0
    3.9305  -10.3104    0.0000 Cl  0  0  0  0  0  0  0  0  0  0  0  0
    2.4757   -8.3081    0.0000 C   0  0  0  0  0  0  0  0  0  0  0  0
    1.9908   -7.6407    0.0000 C   0  0  0  0  0  0  0  0  0  0  0  0
    1.1703   -7.7269    0.0000 F   0  0  0  0  0  0  0  0  0  0  0  0
    2.0964   -5.4349    0.0000 C   0  0  0  0  0  0  0  0  0  0  0  0
    2.8810   -5.1800    0.0000 O   0  0  0  0  0  0  0  0  0  0  0  0
  1  2  1  0  0  0  0
  2  3  1  0  0  0  0
  3  4  4  0  0  0  0
  4  5  1  0  0  0  0
  5  6  1  0  0  0  0
  4  7  4  0  0  0  0
  7  8  4  0  0  0  0
  8  9  1  0  0  0  0
  9 10  4  0  0  0  0
 10 11  4  0  0  0  0
 11 12  1  0  0  0  0
 12 13  1  0  0  0  0
 13 14  1  0  0  0  0
 13 15  1  0  0  0  0
 15 16  1  0  0  0  0
 15 17  1  0  0  0  0
 15 18  1  0  0  0  0
 11 19  4  0  0  0  0
 19 20  1  0  0  0  0
 20 21  2  0  0  0  0
 20 22  1  0  0  0  0
 22 23  1  0  0  0  0
 23 24  4  0  0  0  0
 24 25  1  0  0  0  0
 24 26  4  0  0  0  0
 26 27  4  0  0  0  0
 27 28  1  0  0  0  0
 27 29  4  0  0  0  0
 29 30  4  0  0  0  0
 23 30  4  0  0  0  0
 30 31  1  0  0  0  0
 19 32  4  0  0  0  0
 32 33  4  0  0  0  0
  9 33  4  0  0  0  0
 33 34  1  0  0  0  0
  8 35  4  0  0  0  0
  3 35  4  0  0  0  0
 35 36  2  0  0  0  0
M  END
> <IC50(uM)>
0.0043

> <Outcome>
1.0

> <BindingDB ID>
972654; 1098808

> <BindingDB MonomerID>
470532

> <BindingDB Ligand Name>
N-(2-chloro-6-fluoro-4-hydroxyphenyl)-4-[4-ethyl-3-(hydroxymethyl)-5-oxo-4,5-dihydro-1H-1,2,4-triazol-1-yl]-5-fluoro-2-{[(2S)-1,1,1-trifluoropropan-2-yl]oxy}benzamide::US10815215, Example 192; N-(2-chloro-6-fluoro-4-hydroxyphenyl)-4-[4-ethyl-3-(hydroxymethyl)-5-oxo-4,5-dihydro-1H-1,2,4-triazol-1-yl]-5-fluoro-2-{[(2S)-1,1,1-trifluoropropan-2-yl]oxy}benzamide::US10815215, Example 192::US11130745, Example 192

> <Curation/DataSource>
US Patent

> <Article DOI>
?

> <PMID>
?

> <Patent Number>
US10815215; US11130745

> <Authors>
Gradl, SN; Nguyen, D; Eis, K; Gunther, J; Stellfeld, T; Janzer, A; Christian, S; Muller, T; Sheikh, SE; Zhou, HJ; Zhao, C; Sykes, DB; Ferrara, SJ; Liu, K; Krober, M; Merz, C; Niehues, M; Schafer, M; Zimmermann, K; Nising, CF; Gradl, SN; Nguyen, D; Eis, K; Gunther, J; Stellfeld, T; Janzer, A; Christian, S; Muller, T; Sheikh, SE; Sykes, DB; Ferrara, SJ; Krober, M; Merz, C; Niehues, M; Schafer, M; Zimmermann, K; Nising, CF

> <Link to Ligand in BindingDB>
http://www.bindingdb.org/bind/chemsearch/marvin/MolStructure.jsp?monomerid=470532

> <Link to Ligand-Target Pair in BindingDB>
http://www.bindingdb.org/jsp/dbsearch/PrimarySearch_ki.jsp?energyterm=kJ/mole&tag=r21&monomerid=470532&enzyme=Dihydroorotate+dehydrogenase&column=ki&startPg=0&Increment=50&submit=Search

> <PubChem CID>
134469979

> <PubChem SID>
441609708

$$$$

  Mrv2115 07222212352D          

 25 27  0  0  0  0            999 V2000
    2.1434   -2.8875    0.0000 C   0  0  0  0  0  0  0  0  0  0  0  0
    2.1434   -3.7125    0.0000 C   0  0  0  0  0  0  0  0  0  0  0  0
    1.4289   -4.1250    0.0000 C   0  0  0  0  0  0  0  0  0  0  0  0
    1.4289   -4.9500    0.0000 C   0  0  0  0  0  0  0  0  0  0  0  0
    2.1434   -5.3625    0.0000 C   0  0  0  0  0  0  0  0  0  0  0  0
    2.1434   -6.1875    0.0000 N   0  0  0  0  0  0  0  0  0  0  0  0
    1.4289   -6.6000    0.0000 C   0  0  0  0  0  0  0  0  0  0  0  0
    1.4289   -7.4250    0.0000 C   0  0  0  0  0  0  0  0  0  0  0  0
    0.7145   -7.8375    0.0000 N   0  0  0  0  0  0  0  0  0  0  0  0
    0.0000   -7.4250    0.0000 C   0  0  0  0  0  0  0  0  0  0  0  0
   -0.7145   -7.8375    0.0000 C   0  0  0  0  0  0  0  0  0  0  0  0
   -0.7145   -8.6625    0.0000 C   0  0  0  0  0  0  0  0  0  0  0  0
   -1.4289   -9.0750    0.0000 C   0  0  0  0  0  0  0  0  0  0  0  0
   -2.1434   -8.6625    0.0000 C   0  0  0  0  0  0  0  0  0  0  0  0
   -2.1434   -7.8375    0.0000 C   0  0  0  0  0  0  0  0  0  0  0  0
   -1.4289   -7.4250    0.0000 C   0  0  0  0  0  0  0  0  0  0  0  0
   -1.4289   -6.6000    0.0000 F   0  0  0  0  0  0  0  0  0  0  0  0
    0.0000   -6.6000    0.0000 C   0  0  0  0  0  0  0  0  0  0  0  0
   -0.7145   -6.1875    0.0000 C   0  0  0  0  0  0  0  0  0  0  0  0
    0.7145   -6.1875    0.0000 C   0  0  0  0  0  0  0  0  0  0  0  0
    2.8579   -4.9500    0.0000 C   0  0  0  0  0  0  0  0  0  0  0  0
    3.5724   -5.3625    0.0000 C   0  0  0  0  0  0  0  0  0  0  0  0
    4.2868   -4.9500    0.0000 O   0  0  0  0  0  0  0  0  0  0  0  0
    3.5724   -6.1875    0.0000 O   0  0  0  0  0  0  0  0  0  0  0  0
    2.8579   -4.1250    0.0000 C   0  0  0  0  0  0  0  0  0  0  0  0
  1  2  1  0  0  0  0
  2  3  4  0  0  0  0
  3  4  4  0  0  0  0
  4  5  4  0  0  0  0
  5  6  1  0  0  0  0
  6  7  1  0  0  0  0
  7  8  4  0  0  0  0
  8  9  4  0  0  0  0
  9 10  4  0  0  0  0
 10 11  1  0  0  0  0
 11 12  4  0  0  0  0
 12 13  4  0  0  0  0
 13 14  4  0  0  0  0
 14 15  4  0  0  0  0
 15 16  4  0  0  0  0
 11 16  4  0  0  0  0
 16 17  1  0  0  0  0
 10 18  4  0  0  0  0
 18 19  1  0  0  0  0
 18 20  4  0  0  0  0
  7 20  4  0  0  0  0
  5 21  4  0  0  0  0
 21 22  1  0  0  0  0
 22 23  2  0  0  0  0
 22 24  1  0  0  0  0
 21 25  4  0  0  0  0
  2 25  4  0  0  0  0
M  END
> <IC50(uM)>
0.005

> <Outcome>
1.0

> <BindingDB ID>
220010

> <BindingDB MonomerID>
102480

> <BindingDB Ligand Name>
US8536165, 77

> <Curation/DataSource>
US Patent

> <Article DOI>
?

> <PMID>
?

> <Patent Number>
US8536165

> <Authors>
Castro Palomino Laria, JC; Terricabras Belart, E; Erra Sola, M; Navarro Romero, E; Fonquerna Pou, S; Cardus Figueras, A; Lozoya Toribio, ME

> <Link to Ligand in BindingDB>
http://www.bindingdb.org/bind/chemsearch/marvin/MolStructure.jsp?monomerid=102480

> <Link to Ligand-Target Pair in BindingDB>
http://www.bindingdb.org/jsp/dbsearch/PrimarySearch_ki.jsp?energyterm=kJ/mole&tag=r21&monomerid=102480&enzyme=Dihydroorotate+dehydrogenase&column=ki&startPg=0&Increment=50&submit=Search

> <PubChem CID>
56968467

> <PubChem SID>
172097771

$$$$

  Mrv2115 07222212352D          

 24 25  0  0  0  0            999 V2000
   -4.2868   -3.3000    0.0000 C   0  0  0  0  0  0  0  0  0  0  0  0
   -4.2868   -2.4750    0.0000 C   0  0  0  0  0  0  0  0  0  0  0  0
   -3.5724   -2.0625    0.0000 O   0  0  0  0  0  0  0  0  0  0  0  0
   -3.5724   -1.2375    0.0000 C   0  0  0  0  0  0  0  0  0  0  0  0
   -4.2868   -0.8250    0.0000 C   0  0  0  0  0  0  0  0  0  0  0  0
   -4.2868   -0.0000    0.0000 C   0  0  0  0  0  0  0  0  0  0  0  0
   -3.5724    0.4125    0.0000 C   0  0  0  0  0  0  0  0  0  0  0  0
   -2.8579   -0.0000    0.0000 C   0  0  0  0  0  0  0  0  0  0  0  0
   -2.1434    0.4125    0.0000 C   0  0  0  0  0  0  0  0  0  0  0  0
   -2.1434    1.2375    0.0000 C   0  0  0  0  0  0  0  0  0  0  0  0
   -1.4289    1.6500    0.0000 C   0  0  0  0  0  0  0  0  0  0  0  0
   -0.7145    1.2375    0.0000 C   0  0  0  0  0  0  0  0  0  0  0  0
    0.0000    1.6500    0.0000 N   0  0  0  0  0  0  0  0  0  0  0  0
    0.0000    2.4750    0.0000 C   0  0  0  0  0  0  0  0  0  0  0  0
   -0.7145    2.8875    0.0000 O   0  0  0  0  0  0  0  0  0  0  0  0
    0.7145    2.8875    0.0000 C   0  0  0  0  0  0  0  0  0  0  0  0
    0.7145    3.7125    0.0000 C   0  0  0  0  0  0  0  0  0  0  0  0
    0.7145    4.5375    0.0000 N   0  0  0  0  0  0  0  0  0  0  0  0
    1.4289    2.4750    0.0000 C   0  0  0  0  0  0  0  0  0  0  0  0
    2.1434    2.8875    0.0000 C   0  0  0  0  0  0  0  0  0  0  0  0
    1.4289    1.6500    0.0000 O   0  0  0  0  0  0  0  0  0  0  0  0
   -0.7145    0.4125    0.0000 C   0  0  0  0  0  0  0  0  0  0  0  0
   -1.4289   -0.0000    0.0000 C   0  0  0  0  0  0  0  0  0  0  0  0
   -2.8579   -0.8250    0.0000 C   0  0  0  0  0  0  0  0  0  0  0  0
  1  2  1  0  0  0  0
  2  3  1  0  0  0  0
  3  4  1  0  0  0  0
  4  5  4  0  0  0  0
  5  6  4  0  0  0  0
  6  7  4  0  0  0  0
  7  8  4  0  0  0  0
  8  9  1  0  0  0  0
  9 10  4  0  0  0  0
 10 11  4  0  0  0  0
 11 12  4  0  0  0  0
 12 13  1  0  0  0  0
 13 14  1  0  0  0  0
 14 15  2  0  0  0  0
 14 16  1  0  0  0  0
 16 17  1  0  0  0  0
 17 18  3  0  0  0  0
 16 19  1  0  0  0  0
 19 20  1  0  0  0  0
 19 21  2  0  0  0  0
 12 22  4  0  0  0  0
 22 23  4  0  0  0  0
  9 23  4  0  0  0  0
  8 24  4  0  0  0  0
  4 24  4  0  0  0  0
M  END
> <IC50(uM)>
0.13

> <Outcome>
1.0

> <BindingDB ID>
52799

> <BindingDB MonomerID>
29039

> <BindingDB Ligand Name>
cyanohydroxybutenamide, 29

> <Curation/DataSource>
Curated from the literature by BindingDB

> <Article DOI>
10.1021/jm800963t

> <PMID>
19351152

> <Patent Number>
?

> <Authors>
Davies, M; Heikkil&auml;, T; McConkey, GA; Fishwick, CW; Parsons, MR; Johnson, AP

> <Link to Ligand in BindingDB>
http://www.bindingdb.org/bind/chemsearch/marvin/MolStructure.jsp?monomerid=29039

> <Link to Ligand-Target Pair in BindingDB>
http://www.bindingdb.org/jsp/dbsearch/PrimarySearch_ki.jsp?energyterm=kJ/mole&tag=r21&monomerid=29039&enzyme=Dihydroorotate+dehydrogenase&column=ki&startPg=0&Increment=50&submit=Search

> <PubChem CID>
91896065

> <PubChem SID>
81054468

$$$$

  Mrv2115 07222212352D          

 22 24  0  0  0  0            999 V2000
    2.1434   -2.8875    0.0000 O   0  0  0  0  0  0  0  0  0  0  0  0
    1.4289   -2.4750    0.0000 C   0  0  0  0  0  0  0  0  0  0  0  0
    0.7145   -2.8875    0.0000 O   0  0  0  0  0  0  0  0  0  0  0  0
    1.4289   -1.6500    0.0000 C   0  0  0  0  0  0  0  0  0  0  0  0
    0.7145   -1.2375    0.0000 C   0  0  0  0  0  0  0  0  0  0  0  0
    0.0000   -1.6500    0.0000 O   0  0  0  0  0  0  0  0  0  0  0  0
    0.7145   -0.4125    0.0000 C   0  0  0  0  0  0  0  0  0  0  0  0
    0.0000    0.0000    0.0000 C   0  0  0  0  0  0  0  0  0  0  0  0
   -0.7145   -0.4125    0.0000 C   0  0  0  0  0  0  0  0  0  0  0  0
   -1.4289    0.0000    0.0000 C   0  0  0  0  0  0  0  0  0  0  0  0
   -1.4289    0.8250    0.0000 C   0  0  0  0  0  0  0  0  0  0  0  0
   -2.1434    1.2375    0.0000 Cl  0  0  0  0  0  0  0  0  0  0  0  0
   -0.7145    1.2375    0.0000 C   0  0  0  0  0  0  0  0  0  0  0  0
    0.0000    0.8250    0.0000 C   0  0  0  0  0  0  0  0  0  0  0  0
    1.4289    0.0000    0.0000 N   0  0  0  0  0  0  0  0  0  0  0  0
    2.1434   -0.4125    0.0000 C   0  0  0  0  0  0  0  0  0  0  0  0
    2.8579    0.0000    0.0000 C   0  0  0  0  0  0  0  0  0  0  0  0
    2.8579    0.8250    0.0000 Cl  0  0  0  0  0  0  0  0  0  0  0  0
    3.5724   -0.4125    0.0000 C   0  0  0  0  0  0  0  0  0  0  0  0
    3.5724   -1.2375    0.0000 C   0  0  0  0  0  0  0  0  0  0  0  0
    2.8579   -1.6500    0.0000 C   0  0  0  0  0  0  0  0  0  0  0  0
    2.1434   -1.2375    0.0000 C   0  0  0  0  0  0  0  0  0  0  0  0
  1  2  2  0  0  0  0
  2  3  1  0  0  0  0
  2  4  1  0  0  0  0
  4  5  4  0  0  0  0
  5  6  1  0  0  0  0
  5  7  4  0  0  0  0
  7  8  1  0  0  0  0
  8  9  4  0  0  0  0
  9 10  4  0  0  0  0
 10 11  4  0  0  0  0
 11 12  1  0  0  0  0
 11 13  4  0  0  0  0
 13 14  4  0  0  0  0
  8 14  4  0  0  0  0
  7 15  4  0  0  0  0
 15 16  4  0  0  0  0
 16 17  4  0  0  0  0
 17 18  1  0  0  0  0
 17 19  4  0  0  0  0
 19 20  4  0  0  0  0
 20 21  4  0  0  0  0
 21 22  4  0  0  0  0
  4 22  4  0  0  0  0
 16 22  4  0  0  0  0
M  END
> <IC50(uM)>
141.0

> <Outcome>
0.0

> <BindingDB ID>
50841852

> <BindingDB MonomerID>
50201895

> <BindingDB Ligand Name>
8-chloro-2-(4-chlorophenyl)-3-hydroxyquinoline-4-carboxylicacid::CHEMBL384543

> <Curation/DataSource>
ChEMBL

> <Article DOI>
10.1021/jm0602256

> <PMID>
17201408

> <Patent Number>
?

> <Authors>
Kaila, N; Janz, K; DeBernardo, S; Bedard, PW; Camphausen, RT; Tam, S; Tsao, DH; Keith, JC; Nickerson-Nutter, C; Shilling, A; Young-Sciame, R; Wang, Q

> <Link to Ligand in BindingDB>
http://www.bindingdb.org/bind/chemsearch/marvin/MolStructure.jsp?monomerid=50201895

> <Link to Ligand-Target Pair in BindingDB>
http://www.bindingdb.org/jsp/dbsearch/PrimarySearch_ki.jsp?energyterm=kJ/mole&tag=r21&monomerid=50201895&enzyme=Dihydroorotate+dehydrogenase&column=ki&startPg=0&Increment=50&submit=Search

> <PubChem CID>
16100003

> <PubChem SID>
104081546

$$$$

  Mrv2115 07222212352D          

 25 28  0  0  0  0            999 V2000
    3.2789    2.0625    0.0000 O   0  0  0  0  0  0  0  0  0  0  0  0
    3.2789    1.2375    0.0000 C   0  0  0  0  0  0  0  0  0  0  0  0
    3.9934    0.8250    0.0000 C   0  0  0  0  0  0  0  0  0  0  0  0
    3.9934    0.0000    0.0000 C   0  0  0  0  0  0  0  0  0  0  0  0
    3.2789   -0.4125    0.0000 C   0  0  0  0  0  0  0  0  0  0  0  0
    2.5645    0.0000    0.0000 C   0  0  0  0  0  0  0  0  0  0  0  0
    2.5645    0.8250    0.0000 C   0  0  0  0  0  0  0  0  0  0  0  0
    1.7798    1.0799    0.0000 N   0  0  0  0  0  0  0  0  0  0  0  0
    1.2949    0.4125    0.0000 N   0  0  0  0  0  0  0  0  0  0  0  0
    1.7798   -0.2549    0.0000 N   0  0  0  0  0  0  0  0  0  0  0  0
    1.5249   -1.0396    0.0000 C   0  0  0  0  0  0  0  0  0  0  0  0
    2.0769   -1.6527    0.0000 C   0  0  0  0  0  0  0  0  0  0  0  0
    1.8220   -2.4373    0.0000 C   0  0  0  0  0  0  0  0  0  0  0  0
    2.3740   -3.0504    0.0000 F   0  0  0  0  0  0  0  0  0  0  0  0
    1.0150   -2.6088    0.0000 C   0  0  0  0  0  0  0  0  0  0  0  0
    0.7601   -3.3934    0.0000 C   0  0  0  0  0  0  0  0  0  0  0  0
    1.3121   -4.0065    0.0000 C   0  0  0  0  0  0  0  0  0  0  0  0
    1.0572   -4.7911    0.0000 C   0  0  0  0  0  0  0  0  0  0  0  0
    0.2502   -4.9627    0.0000 C   0  0  0  0  0  0  0  0  0  0  0  0
   -0.3018   -4.3496    0.0000 C   0  0  0  0  0  0  0  0  0  0  0  0
   -0.0469   -3.5650    0.0000 C   0  0  0  0  0  0  0  0  0  0  0  0
   -0.5989   -2.9519    0.0000 F   0  0  0  0  0  0  0  0  0  0  0  0
    0.4630   -1.9957    0.0000 C   0  0  0  0  0  0  0  0  0  0  0  0
   -0.3440   -2.1672    0.0000 F   0  0  0  0  0  0  0  0  0  0  0  0
    0.7179   -1.2111    0.0000 C   0  0  0  0  0  0  0  0  0  0  0  0
  1  2  2  0  0  0  0
  2  3  1  0  0  0  0
  3  4  1  0  0  0  0
  4  5  1  0  0  0  0
  5  6  1  0  0  0  0
  6  7  4  0  0  0  0
  2  7  1  0  0  0  0
  7  8  4  0  0  0  0
  8  9  4  0  0  0  0
  9 10  4  0  0  0  0
  6 10  4  0  0  0  0
 10 11  1  0  0  0  0
 11 12  4  0  0  0  0
 12 13  4  0  0  0  0
 13 14  1  0  0  0  0
 13 15  4  0  0  0  0
 15 16  1  0  0  0  0
 16 17  4  0  0  0  0
 17 18  4  0  0  0  0
 18 19  4  0  0  0  0
 19 20  4  0  0  0  0
 20 21  4  0  0  0  0
 16 21  4  0  0  0  0
 21 22  1  0  0  0  0
 15 23  4  0  0  0  0
 23 24  1  0  0  0  0
 23 25  4  0  0  0  0
 11 25  4  0  0  0  0
M  END
> <IC50(uM)>
1.0

> <Outcome>
1.0

> <BindingDB ID>
51338214

> <BindingDB MonomerID>
50541688

> <BindingDB Ligand Name>
CHEMBL4646857

> <Curation/DataSource>
ChEMBL

> <Article DOI>
10.1021/acs.jmedchem.0c00512

> <PMID>
32496056

> <Patent Number>
?

> <Authors>
Zuo, Z; Liu, X; Qian, X; Zeng, T; Sang, N; Liu, H; Zhou, Y; Tao, L; Zhou, X; Su, N; Yu, Y; Chen, Q; Luo, Y; Zhao, Y

> <Link to Ligand in BindingDB>
http://www.bindingdb.org/bind/chemsearch/marvin/MolStructure.jsp?monomerid=50541688

> <Link to Ligand-Target Pair in BindingDB>
http://www.bindingdb.org/jsp/dbsearch/PrimarySearch_ki.jsp?energyterm=kJ/mole&tag=r21&monomerid=50541688&enzyme=Dihydroorotate+dehydrogenase&column=ki&startPg=0&Increment=50&submit=Search

> <PubChem CID>
154637204

> <PubChem SID>
442143251

$$$$

  Mrv2115 07222212352D          

 38 42  0  0  0  0            999 V2000
    0.0000   -1.6500    0.0000 C   0  0  0  0  0  0  0  0  0  0  0  0
    0.7145   -1.2375    0.0000 C   0  0  0  0  0  0  0  0  0  0  0  0
    0.7145   -0.4125    0.0000 C   0  0  0  0  0  0  0  0  0  0  0  0
    1.4289    0.0000    0.0000 C   0  0  0  0  0  0  0  0  0  0  0  0
    2.1434   -0.4125    0.0000 C   0  0  0  0  0  0  0  0  0  0  0  0
    2.8579    0.0000    0.0000 C   0  0  0  0  0  0  0  0  0  0  0  0
    3.5724   -0.4125    0.0000 C   0  0  0  0  0  0  0  0  0  0  0  0
    4.2868   -0.0000    0.0000 N   0  0  0  0  0  0  0  0  0  0  0  0
    4.2868    0.8250    0.0000 C   0  0  0  0  0  0  0  0  0  0  0  0
    3.5724    1.2375    0.0000 O   0  0  0  0  0  0  0  0  0  0  0  0
    5.0013    1.2375    0.0000 C   0  0  0  0  0  0  0  0  0  0  0  0
    5.0013    2.0625    0.0000 C   0  0  0  0  0  0  0  0  0  0  0  0
    5.7158    2.4750    0.0000 C   0  0  0  0  0  0  0  0  0  0  0  0
    5.7158    3.3000    0.0000 F   0  0  0  0  0  0  0  0  0  0  0  0
    6.4302    2.0625    0.0000 C   0  0  0  0  0  0  0  0  0  0  0  0
    7.1447    2.4750    0.0000 N   0  0  0  0  0  0  0  0  0  0  0  0
    7.2309    3.2955    0.0000 N   0  0  0  0  0  0  0  0  0  0  0  0
    8.0379    3.4670    0.0000 C   0  0  0  0  0  0  0  0  0  0  0  0
    8.4504    2.7525    0.0000 N   0  0  0  0  0  0  0  0  0  0  0  0
    7.8984    2.1394    0.0000 C   0  0  0  0  0  0  0  0  0  0  0  0
    8.0699    1.3325    0.0000 O   0  0  0  0  0  0  0  0  0  0  0  0
    9.2754    2.7525    0.0000 C   0  0  0  0  0  0  0  0  0  0  0  0
    9.6879    3.4670    0.0000 C   0  0  0  0  0  0  0  0  0  0  0  0
    9.2754    4.1815    0.0000 C   0  0  0  0  0  0  0  0  0  0  0  0
    8.4504    4.1815    0.0000 C   0  0  0  0  0  0  0  0  0  0  0  0
    6.4302    1.2375    0.0000 C   0  0  0  0  0  0  0  0  0  0  0  0
    5.7158    0.8250    0.0000 C   0  0  0  0  0  0  0  0  0  0  0  0
    5.7158   -0.0000    0.0000 O   0  0  0  0  0  0  0  0  0  0  0  0
    6.4302   -0.4125    0.0000 C   0  0  0  0  0  0  0  0  0  0  0  0
    7.1447   -0.0000    0.0000 C   0  0  0  0  0  0  0  0  0  0  0  0
    6.4302   -1.2375    0.0000 C   0  0  0  0  0  0  0  0  0  0  0  0
    5.6052   -1.2375    0.0000 F   0  0  0  0  0  0  0  0  0  0  0  0
    7.2552   -1.2375    0.0000 F   0  0  0  0  0  0  0  0  0  0  0  0
    6.4302   -2.0625    0.0000 F   0  0  0  0  0  0  0  0  0  0  0  0
    3.5724   -1.2375    0.0000 C   0  0  0  0  0  0  0  0  0  0  0  0
    2.8579   -1.6500    0.0000 C   0  0  0  0  0  0  0  0  0  0  0  0
    2.1434   -1.2375    0.0000 C   0  0  0  0  0  0  0  0  0  0  0  0
    1.4289   -1.6500    0.0000 N   0  0  0  0  0  0  0  0  0  0  0  0
  1  2  1  0  0  0  0
  2  3  4  0  0  0  0
  3  4  4  0  0  0  0
  4  5  4  0  0  0  0
  5  6  4  0  0  0  0
  6  7  4  0  0  0  0
  7  8  1  0  0  0  0
  8  9  1  0  0  0  0
  9 10  2  0  0  0  0
  9 11  1  0  0  0  0
 11 12  4  0  0  0  0
 12 13  4  0  0  0  0
 13 14  1  0  0  0  0
 13 15  4  0  0  0  0
 15 16  1  0  0  0  0
 16 17  4  0  0  0  0
 17 18  4  0  0  0  0
 18 19  4  0  0  0  0
 19 20  4  0  0  0  0
 16 20  4  0  0  0  0
 20 21  2  0  0  0  0
 19 22  1  0  0  0  0
 22 23  1  0  0  0  0
 23 24  1  0  0  0  0
 24 25  1  0  0  0  0
 18 25  1  0  0  0  0
 15 26  4  0  0  0  0
 26 27  4  0  0  0  0
 11 27  4  0  0  0  0
 27 28  1  0  0  0  0
 28 29  1  0  0  0  0
 29 30  1  0  0  0  0
 29 31  1  0  0  0  0
 31 32  1  0  0  0  0
 31 33  1  0  0  0  0
 31 34  1  0  0  0  0
  7 35  4  0  0  0  0
 35 36  4  0  0  0  0
 36 37  4  0  0  0  0
  5 37  4  0  0  0  0
 37 38  4  0  0  0  0
  2 38  4  0  0  0  0
M  END
> <IC50(uM)>
4.5

> <Outcome>
0.0

> <BindingDB ID>
1020487

> <BindingDB MonomerID>
490435

> <BindingDB Ligand Name>
5-fluoro-N-(2-methylquinolin-6-yl)-4-(3-oxo-5,6,7,8-tetrahydro[1,2,4]triazolo[4,3-a]pyridin-2(3H)-yl)-2-{[(2S)-1,1,1-trifluoropropan-2-yl]oxy}benzamide::US10968216, Example 103

> <Curation/DataSource>
US Patent

> <Article DOI>
?

> <PMID>
?

> <Patent Number>
US10968216

> <Authors>
Gradl, SN; Nguyen, D; Eis, K; Gunther, J; Stellfeld, T; Janzer, A; Christian, S; Mueller, T; Sheikh, SE; Zhou, HJ; Zhao, C; Sykes, DB; Ferrara, SJ; Liu, K; Herbert, SA; Merz, C; Niehues, M; Nising, CF; Schafer, M; Zimmermann, K; Knablein, J; Thede, K; Faupel, T

> <Link to Ligand in BindingDB>
http://www.bindingdb.org/bind/chemsearch/marvin/MolStructure.jsp?monomerid=490435

> <Link to Ligand-Target Pair in BindingDB>
http://www.bindingdb.org/jsp/dbsearch/PrimarySearch_ki.jsp?energyterm=kJ/mole&tag=r21&monomerid=490435&enzyme=Dihydroorotate+dehydrogenase&column=ki&startPg=0&Increment=50&submit=Search

> <PubChem CID>
134474129

> <PubChem SID>
447117162

$$$$

  Mrv2115 07222212352D          

 28 31  0  0  0  0            999 V2000
    4.0668    2.3479    0.0000 C   0  0  0  0  0  0  0  0  0  0  0  0
    3.3523    1.9354    0.0000 C   0  0  0  0  0  0  0  0  0  0  0  0
    3.3523    1.1104    0.0000 C   0  0  0  0  0  0  0  0  0  0  0  0
    2.6378    0.6979    0.0000 C   0  0  0  0  0  0  0  0  0  0  0  0
    2.6378   -0.1271    0.0000 C   0  0  0  0  0  0  0  0  0  0  0  0
    1.9233   -0.5396    0.0000 O   0  0  0  0  0  0  0  0  0  0  0  0
    3.3523   -0.5396    0.0000 O   0  0  0  0  0  0  0  0  0  0  0  0
    1.9233    1.1104    0.0000 C   0  0  0  0  0  0  0  0  0  0  0  0
    1.1387    0.8555    0.0000 N   0  0  0  0  0  0  0  0  0  0  0  0
    0.6538    1.5229    0.0000 C   0  0  0  0  0  0  0  0  0  0  0  0
   -0.1712    1.5229    0.0000 C   0  0  0  0  0  0  0  0  0  0  0  0
   -0.5837    0.8085    0.0000 C   0  0  0  0  0  0  0  0  0  0  0  0
   -1.4087    0.8085    0.0000 C   0  0  0  0  0  0  0  0  0  0  0  0
   -1.8212    1.5229    0.0000 C   0  0  0  0  0  0  0  0  0  0  0  0
   -2.6462    1.5229    0.0000 C   0  0  0  0  0  0  0  0  0  0  0  0
   -3.0587    0.8085    0.0000 C   0  0  0  0  0  0  0  0  0  0  0  0
   -3.8837    0.8085    0.0000 C   0  0  0  0  0  0  0  0  0  0  0  0
   -4.2962    1.5229    0.0000 C   0  0  0  0  0  0  0  0  0  0  0  0
   -3.8837    2.2374    0.0000 C   0  0  0  0  0  0  0  0  0  0  0  0
   -3.0587    2.2374    0.0000 C   0  0  0  0  0  0  0  0  0  0  0  0
   -1.4087    2.2374    0.0000 C   0  0  0  0  0  0  0  0  0  0  0  0
   -0.5837    2.2374    0.0000 C   0  0  0  0  0  0  0  0  0  0  0  0
    1.1387    2.1904    0.0000 N   0  0  0  0  0  0  0  0  0  0  0  0
    0.8838    2.9750    0.0000 C   0  0  0  0  0  0  0  0  0  0  0  0
    0.0768    3.1465    0.0000 C   0  0  0  0  0  0  0  0  0  0  0  0
   -0.1781    3.9312    0.0000 O   0  0  0  0  0  0  0  0  0  0  0  0
    1.9233    1.9354    0.0000 C   0  0  0  0  0  0  0  0  0  0  0  0
    2.6378    2.3479    0.0000 C   0  0  0  0  0  0  0  0  0  0  0  0
  1  2  1  0  0  0  0
  2  3  4  0  0  0  0
  3  4  4  0  0  0  0
  4  5  1  0  0  0  0
  5  6  2  0  0  0  0
  5  7  1  0  0  0  0
  4  8  4  0  0  0  0
  8  9  4  0  0  0  0
  9 10  4  0  0  0  0
 10 11  1  0  0  0  0
 11 12  4  0  0  0  0
 12 13  4  0  0  0  0
 13 14  4  0  0  0  0
 14 15  1  0  0  0  0
 15 16  4  0  0  0  0
 16 17  4  0  0  0  0
 17 18  4  0  0  0  0
 18 19  4  0  0  0  0
 19 20  4  0  0  0  0
 15 20  4  0  0  0  0
 14 21  4  0  0  0  0
 21 22  4  0  0  0  0
 11 22  4  0  0  0  0
 10 23  4  0  0  0  0
 23 24  1  0  0  0  0
 24 25  1  0  0  0  0
 25 26  1  0  0  0  0
 23 27  4  0  0  0  0
  8 27  4  0  0  0  0
 27 28  4  0  0  0  0
  2 28  4  0  0  0  0
M  END
> <IC50(uM)>
4.789

> <Outcome>
0.0

> <BindingDB ID>
297795

> <BindingDB MonomerID>
155451

> <BindingDB Ligand Name>
US9006454, I93

> <Curation/DataSource>
US Patent

> <Article DOI>
?

> <PMID>
?

> <Patent Number>
US9006454

> <Authors>
Thunuguntla, SS; Subramanya, H; Kunnam, SR; Sanivaru Vijay, SR; Bingi, C; Kusanur, R; Schwarz, M; Arlt, M

> <Link to Ligand in BindingDB>
http://www.bindingdb.org/bind/chemsearch/marvin/MolStructure.jsp?monomerid=155451

> <Link to Ligand-Target Pair in BindingDB>
http://www.bindingdb.org/jsp/dbsearch/PrimarySearch_ki.jsp?energyterm=kJ/mole&tag=r21&monomerid=155451&enzyme=Dihydroorotate+dehydrogenase&column=ki&startPg=0&Increment=50&submit=Search

> <PubChem CID>
58073909

> <PubChem SID>
253658388

$$$$

  Mrv2115 07222212352D          

 36 40  0  0  0  0            999 V2000
   -5.1659   -2.8414    0.0000 C   0  0  0  0  0  0  0  0  0  0  0  0
   -5.5784   -2.1269    0.0000 C   0  0  0  0  0  0  0  0  0  0  0  0
   -6.4034   -2.1269    0.0000 C   0  0  0  0  0  0  0  0  0  0  0  0
   -6.8159   -1.4124    0.0000 N   0  0  0  0  0  0  0  0  0  0  0  0
   -6.4034   -0.6979    0.0000 C   0  0  0  0  0  0  0  0  0  0  0  0
   -5.5784   -0.6979    0.0000 C   0  0  0  0  0  0  0  0  0  0  0  0
   -5.1659   -1.4124    0.0000 C   0  0  0  0  0  0  0  0  0  0  0  0
   -4.3409   -1.4124    0.0000 N   0  0  0  0  0  0  0  0  0  0  0  0
   -3.9284   -0.6979    0.0000 C   0  0  0  0  0  0  0  0  0  0  0  0
   -4.3409    0.0165    0.0000 O   0  0  0  0  0  0  0  0  0  0  0  0
   -3.1034   -0.6979    0.0000 C   0  0  0  0  0  0  0  0  0  0  0  0
   -2.6909    0.0165    0.0000 C   0  0  0  0  0  0  0  0  0  0  0  0
   -1.8659    0.0165    0.0000 C   0  0  0  0  0  0  0  0  0  0  0  0
   -1.4534    0.7310    0.0000 F   0  0  0  0  0  0  0  0  0  0  0  0
   -1.4534   -0.6979    0.0000 C   0  0  0  0  0  0  0  0  0  0  0  0
   -0.6284   -0.6979    0.0000 N   0  0  0  0  0  0  0  0  0  0  0  0
   -0.1435   -1.3654    0.0000 N   0  0  0  0  0  0  0  0  0  0  0  0
    0.6411   -1.1104    0.0000 C   0  0  0  0  0  0  0  0  0  0  0  0
    0.6411   -0.2854    0.0000 N   0  0  0  0  0  0  0  0  0  0  0  0
   -0.1435   -0.0305    0.0000 C   0  0  0  0  0  0  0  0  0  0  0  0
   -0.3984    0.7541    0.0000 O   0  0  0  0  0  0  0  0  0  0  0  0
    1.3556    0.1271    0.0000 C   0  0  0  0  0  0  0  0  0  0  0  0
    2.0701   -0.2854    0.0000 C   0  0  0  0  0  0  0  0  0  0  0  0
    2.0701   -1.1104    0.0000 C   0  0  0  0  0  0  0  0  0  0  0  0
    1.3556   -1.5229    0.0000 C   0  0  0  0  0  0  0  0  0  0  0  0
   -1.8659   -1.4124    0.0000 C   0  0  0  0  0  0  0  0  0  0  0  0
   -2.6909   -1.4124    0.0000 C   0  0  0  0  0  0  0  0  0  0  0  0
   -3.1034   -2.1269    0.0000 O   0  0  0  0  0  0  0  0  0  0  0  0
   -2.6909   -2.8414    0.0000 C   0  0  0  0  0  0  0  0  0  0  0  0
   -1.8659   -2.8414    0.0000 C   0  0  0  0  0  0  0  0  0  0  0  0
   -3.1034   -3.5558    0.0000 C   0  0  0  0  0  0  0  0  0  0  0  0
   -2.6909   -4.2703    0.0000 C   0  0  0  0  0  0  0  0  0  0  0  0
   -3.1034   -4.9848    0.0000 C   0  0  0  0  0  0  0  0  0  0  0  0
   -3.9284   -4.9848    0.0000 C   0  0  0  0  0  0  0  0  0  0  0  0
   -4.3409   -4.2703    0.0000 C   0  0  0  0  0  0  0  0  0  0  0  0
   -3.9284   -3.5558    0.0000 C   0  0  0  0  0  0  0  0  0  0  0  0
  1  2  1  0  0  0  0
  2  3  4  0  0  0  0
  3  4  4  0  0  0  0
  4  5  4  0  0  0  0
  5  6  4  0  0  0  0
  6  7  4  0  0  0  0
  2  7  4  0  0  0  0
  7  8  1  0  0  0  0
  8  9  1  0  0  0  0
  9 10  2  0  0  0  0
  9 11  1  0  0  0  0
 11 12  4  0  0  0  0
 12 13  4  0  0  0  0
 13 14  1  0  0  0  0
 13 15  4  0  0  0  0
 15 16  1  0  0  0  0
 16 17  4  0  0  0  0
 17 18  4  0  0  0  0
 18 19  4  0  0  0  0
 19 20  4  0  0  0  0
 16 20  4  0  0  0  0
 20 21  2  0  0  0  0
 19 22  1  0  0  0  0
 22 23  1  0  0  0  0
 23 24  1  0  0  0  0
 24 25  1  0  0  0  0
 18 25  1  0  0  0  0
 15 26  4  0  0  0  0
 26 27  4  0  0  0  0
 11 27  4  0  0  0  0
 27 28  1  0  0  0  0
 28 29  1  0  0  0  0
 29 30  1  0  0  0  0
 29 31  1  0  0  0  0
 31 32  1  0  0  0  0
 32 33  1  0  0  0  0
 33 34  1  0  0  0  0
 34 35  1  0  0  0  0
 35 36  1  0  0  0  0
 31 36  1  0  0  0  0
M  END
> <IC50(uM)>
0.016

> <Outcome>
1.0

> <BindingDB ID>
1020561

> <BindingDB MonomerID>
490500

> <BindingDB Ligand Name>
2-[(1S)-1-cyclohexylethoxy]-5-fluoro-N-(3-methylpyridin-4-yl)-4-(3-oxo-5,6,7,8-tetrahydro-[1,2,4]triazolo[4,3-a]pyridin-2(3H)-yl)benzamide::US10968216, Example 168

> <Curation/DataSource>
US Patent

> <Article DOI>
?

> <PMID>
?

> <Patent Number>
US10968216

> <Authors>
Gradl, SN; Nguyen, D; Eis, K; Gunther, J; Stellfeld, T; Janzer, A; Christian, S; Mueller, T; Sheikh, SE; Zhou, HJ; Zhao, C; Sykes, DB; Ferrara, SJ; Liu, K; Herbert, SA; Merz, C; Niehues, M; Nising, CF; Schafer, M; Zimmermann, K; Knablein, J; Thede, K; Faupel, T

> <Link to Ligand in BindingDB>
http://www.bindingdb.org/bind/chemsearch/marvin/MolStructure.jsp?monomerid=490500

> <Link to Ligand-Target Pair in BindingDB>
http://www.bindingdb.org/jsp/dbsearch/PrimarySearch_ki.jsp?energyterm=kJ/mole&tag=r21&monomerid=490500&enzyme=Dihydroorotate+dehydrogenase&column=ki&startPg=0&Increment=50&submit=Search

> <PubChem CID>
134473996

> <PubChem SID>
447117227

$$$$

  Mrv2115 07222212352D          

 36 39  0  0  0  0            999 V2000
   -3.1034    2.1599    0.0000 C   0  0  0  0  0  0  0  0  0  0  0  0
   -2.6909    1.4455    0.0000 C   0  0  0  0  0  0  0  0  0  0  0  0
   -3.1034    0.7310    0.0000 O   0  0  0  0  0  0  0  0  0  0  0  0
   -2.6909    0.0165    0.0000 C   0  0  0  0  0  0  0  0  0  0  0  0
   -1.8659    0.0165    0.0000 C   0  0  0  0  0  0  0  0  0  0  0  0
   -1.4534   -0.6979    0.0000 C   0  0  0  0  0  0  0  0  0  0  0  0
   -0.6284   -0.6979    0.0000 N   0  0  0  0  0  0  0  0  0  0  0  0
   -0.1435   -1.3654    0.0000 N   0  0  0  0  0  0  0  0  0  0  0  0
    0.6411   -1.1104    0.0000 C   0  0  0  0  0  0  0  0  0  0  0  0
    0.6411   -0.2854    0.0000 N   0  0  0  0  0  0  0  0  0  0  0  0
   -0.1435   -0.0305    0.0000 C   0  0  0  0  0  0  0  0  0  0  0  0
   -0.3984    0.7541    0.0000 O   0  0  0  0  0  0  0  0  0  0  0  0
    1.3556    0.1271    0.0000 C   0  0  0  0  0  0  0  0  0  0  0  0
    2.0701   -0.2854    0.0000 C   0  0  0  0  0  0  0  0  0  0  0  0
    2.0701   -1.1104    0.0000 C   0  0  0  0  0  0  0  0  0  0  0  0
    2.7845   -1.5229    0.0000 O   0  0  0  0  0  0  0  0  0  0  0  0
    1.3556   -1.5229    0.0000 C   0  0  0  0  0  0  0  0  0  0  0  0
   -1.8659   -1.4124    0.0000 C   0  0  0  0  0  0  0  0  0  0  0  0
   -1.4534   -2.1269    0.0000 F   0  0  0  0  0  0  0  0  0  0  0  0
   -2.6909   -1.4124    0.0000 C   0  0  0  0  0  0  0  0  0  0  0  0
   -3.1034   -0.6979    0.0000 C   0  0  0  0  0  0  0  0  0  0  0  0
   -3.9284   -0.6979    0.0000 C   0  0  0  0  0  0  0  0  0  0  0  0
   -4.3409    0.0165    0.0000 O   0  0  0  0  0  0  0  0  0  0  0  0
   -4.3409   -1.4124    0.0000 N   0  0  0  0  0  0  0  0  0  0  0  0
   -5.1659   -1.4124    0.0000 C   0  0  0  0  0  0  0  0  0  0  0  0
   -5.5784   -2.1269    0.0000 C   0  0  0  0  0  0  0  0  0  0  0  0
   -5.1659   -2.8414    0.0000 F   0  0  0  0  0  0  0  0  0  0  0  0
   -6.4034   -2.1269    0.0000 C   0  0  0  0  0  0  0  0  0  0  0  0
   -6.8159   -1.4124    0.0000 C   0  0  0  0  0  0  0  0  0  0  0  0
   -6.4034   -0.6979    0.0000 C   0  0  0  0  0  0  0  0  0  0  0  0
   -5.5784   -0.6979    0.0000 C   0  0  0  0  0  0  0  0  0  0  0  0
   -5.1659    0.0165    0.0000 F   0  0  0  0  0  0  0  0  0  0  0  0
   -1.8659    1.4455    0.0000 C   0  0  0  0  0  0  0  0  0  0  0  0
   -1.8659    0.6205    0.0000 F   0  0  0  0  0  0  0  0  0  0  0  0
   -1.8659    2.2705    0.0000 F   0  0  0  0  0  0  0  0  0  0  0  0
   -1.0409    1.4455    0.0000 F   0  0  0  0  0  0  0  0  0  0  0  0
  1  2  1  0  0  0  0
  2  3  1  0  0  0  0
  3  4  1  0  0  0  0
  4  5  4  0  0  0  0
  5  6  4  0  0  0  0
  6  7  1  0  0  0  0
  7  8  4  0  0  0  0
  8  9  4  0  0  0  0
  9 10  4  0  0  0  0
 10 11  4  0  0  0  0
  7 11  4  0  0  0  0
 11 12  2  0  0  0  0
 10 13  1  0  0  0  0
 13 14  1  0  0  0  0
 14 15  1  0  0  0  0
 15 16  1  0  0  0  0
 15 17  1  0  0  0  0
  9 17  1  0  0  0  0
  6 18  4  0  0  0  0
 18 19  1  0  0  0  0
 18 20  4  0  0  0  0
 20 21  4  0  0  0  0
  4 21  4  0  0  0  0
 21 22  1  0  0  0  0
 22 23  2  0  0  0  0
 22 24  1  0  0  0  0
 24 25  1  0  0  0  0
 25 26  4  0  0  0  0
 26 27  1  0  0  0  0
 26 28  4  0  0  0  0
 28 29  4  0  0  0  0
 29 30  4  0  0  0  0
 30 31  4  0  0  0  0
 25 31  4  0  0  0  0
 31 32  1  0  0  0  0
  2 33  1  0  0  0  0
 33 34  1  0  0  0  0
 33 35  1  0  0  0  0
 33 36  1  0  0  0  0
M  END
> <IC50(uM)>
140.0

> <Outcome>
0.0

> <BindingDB ID>
1020699

> <BindingDB MonomerID>
490625

> <BindingDB Ligand Name>
N-(2,6-difluorophenyl)-5-fluoro-4-(7-hydroxy-3-oxo-5,6,7,8-tetrahydro[1,2,4]triazolo[4,3-a]-pyridin-2(3H)-yl)-2-{[(2S)-1,1,1-trifluoropropan-2-yl]oxy}benzamide::US10968216, Example 293

> <Curation/DataSource>
US Patent

> <Article DOI>
?

> <PMID>
?

> <Patent Number>
US10968216

> <Authors>
Gradl, SN; Nguyen, D; Eis, K; Gunther, J; Stellfeld, T; Janzer, A; Christian, S; Mueller, T; Sheikh, SE; Zhou, HJ; Zhao, C; Sykes, DB; Ferrara, SJ; Liu, K; Herbert, SA; Merz, C; Niehues, M; Nising, CF; Schafer, M; Zimmermann, K; Knablein, J; Thede, K; Faupel, T

> <Link to Ligand in BindingDB>
http://www.bindingdb.org/bind/chemsearch/marvin/MolStructure.jsp?monomerid=490625

> <Link to Ligand-Target Pair in BindingDB>
http://www.bindingdb.org/jsp/dbsearch/PrimarySearch_ki.jsp?energyterm=kJ/mole&tag=r21&monomerid=490625&enzyme=Dihydroorotate+dehydrogenase&column=ki&startPg=0&Increment=50&submit=Search

> <PubChem CID>
134473863

> <PubChem SID>
447117351

$$$$

  Mrv2115 07222212352D          

 26 28  0  0  0  0            999 V2000
    5.0013   -1.2375    0.0000 O   0  0  0  0  0  0  0  0  0  0  0  0
    5.7158   -1.6500    0.0000 C   0  0  0  0  0  0  0  0  0  0  0  0
    6.4302   -1.2375    0.0000 O   0  0  0  0  0  0  0  0  0  0  0  0
    5.7158   -2.4750    0.0000 C   0  0  0  0  0  0  0  0  0  0  0  0
    6.4302   -2.8875    0.0000 N   0  0  0  0  0  0  0  0  0  0  0  0
    6.4302   -3.7125    0.0000 C   0  0  0  0  0  0  0  0  0  0  0  0
    7.1447   -4.1250    0.0000 O   0  0  0  0  0  0  0  0  0  0  0  0
    5.7158   -4.1250    0.0000 N   0  0  0  0  0  0  0  0  0  0  0  0
    5.0013   -3.7125    0.0000 C   0  0  0  0  0  0  0  0  0  0  0  0
    4.2868   -4.1250    0.0000 O   0  0  0  0  0  0  0  0  0  0  0  0
    5.0013   -2.8875    0.0000 C   0  0  0  0  0  0  0  0  0  0  0  0
    4.2868   -2.4750    0.0000 C   0  0  0  0  0  0  0  0  0  0  0  0
    3.5724   -2.8875    0.0000 C   0  0  0  0  0  0  0  0  0  0  0  0
    2.8579   -2.4750    0.0000 C   0  0  0  0  0  0  0  0  0  0  0  0
    2.1434   -2.8875    0.0000 C   0  0  0  0  0  0  0  0  0  0  0  0
    1.4289   -2.4750    0.0000 C   0  0  0  0  0  0  0  0  0  0  0  0
    1.4289   -1.6500    0.0000 C   0  0  0  0  0  0  0  0  0  0  0  0
    0.7145   -1.2375    0.0000 O   0  0  0  0  0  0  0  0  0  0  0  0
    0.7145   -0.4125    0.0000 C   0  0  0  0  0  0  0  0  0  0  0  0
    0.0000    0.0000    0.0000 C   0  0  0  0  0  0  0  0  0  0  0  0
    0.0000    0.8250    0.0000 C   0  0  0  0  0  0  0  0  0  0  0  0
    0.7145    1.2375    0.0000 C   0  0  0  0  0  0  0  0  0  0  0  0
    1.4289    0.8250    0.0000 C   0  0  0  0  0  0  0  0  0  0  0  0
    1.4289    0.0000    0.0000 C   0  0  0  0  0  0  0  0  0  0  0  0
    2.1434   -1.2375    0.0000 C   0  0  0  0  0  0  0  0  0  0  0  0
    2.8579   -1.6500    0.0000 C   0  0  0  0  0  0  0  0  0  0  0  0
  1  2  2  0  0  0  0
  2  3  1  0  0  0  0
  2  4  1  0  0  0  0
  4  5  4  0  0  0  0
  5  6  4  0  0  0  0
  6  7  2  0  0  0  0
  6  8  4  0  0  0  0
  8  9  4  0  0  0  0
  9 10  2  0  0  0  0
  9 11  4  0  0  0  0
  4 11  4  0  0  0  0
 11 12  1  0  0  0  0
 12 13  1  0  0  0  0
 13 14  1  0  0  0  0
 14 15  4  0  0  0  0
 15 16  4  0  0  0  0
 16 17  4  0  0  0  0
 17 18  1  0  0  0  0
 18 19  1  0  0  0  0
 19 20  4  0  0  0  0
 20 21  4  0  0  0  0
 21 22  4  0  0  0  0
 22 23  4  0  0  0  0
 23 24  4  0  0  0  0
 19 24  4  0  0  0  0
 17 25  4  0  0  0  0
 25 26  4  0  0  0  0
 14 26  4  0  0  0  0
M  STY  2   1 DAT   2 DAT
M  SAL   1  1   5
M  SDT   1 MRV_IMPLICIT_H                                        
M  SDD   1     0.5304   -0.4125    DR    ALL  0       0  
M  SED   1 IMPL_H1
M  SAL   2  1   8
M  SDT   2 MRV_IMPLICIT_H                                        
M  SDD   2     0.6482   -0.4125    DR    ALL  0       0  
M  SED   2 IMPL_H1
M  END
> <IC50(uM)>
0.017

> <Outcome>
1.0

> <BindingDB ID>
50555401

> <BindingDB MonomerID>
50211957

> <BindingDB Ligand Name>
CHEMBL3943890

> <Curation/DataSource>
ChEMBL

> <Article DOI>
10.1016/j.bmc.2017.01.009

> <PMID>
28118956

> <Patent Number>
?

> <Authors>
Inaoka, DK; Iida, M; Hashimoto, S; Tabuchi, T; Kuranaga, T; Balogun, EO; Honma, T; Tanaka, A; Harada, S; Nara, T; Kita, K; Inoue, M

> <Link to Ligand in BindingDB>
http://www.bindingdb.org/bind/chemsearch/marvin/MolStructure.jsp?monomerid=50211957

> <Link to Ligand-Target Pair in BindingDB>
http://www.bindingdb.org/jsp/dbsearch/PrimarySearch_ki.jsp?energyterm=kJ/mole&tag=r21&monomerid=50211957&enzyme=Dihydroorotate+dehydrogenase&column=ki&startPg=0&Increment=50&submit=Search

> <PubChem CID>
134146530

> <PubChem SID>
375983079

$$$$

  Mrv2115 07222212352D          

 29 32  0  0  0  0            999 V2000
   -2.1434   -3.7125    0.0000 C   0  0  0  0  0  0  0  0  0  0  0  0
   -2.1434   -2.8875    0.0000 O   0  0  0  0  0  0  0  0  0  0  0  0
   -1.4289   -2.4750    0.0000 C   0  0  0  0  0  0  0  0  0  0  0  0
   -1.4289   -1.6500    0.0000 C   0  0  0  0  0  0  0  0  0  0  0  0
   -0.7145   -1.2375    0.0000 C   0  0  0  0  0  0  0  0  0  0  0  0
    0.0000   -1.6500    0.0000 C   0  0  0  0  0  0  0  0  0  0  0  0
    0.7145   -1.2375    0.0000 C   0  0  0  0  0  0  0  0  0  0  0  0
    0.7145   -0.4125    0.0000 C   0  0  0  0  0  0  0  0  0  0  0  0
    1.4289    0.0000    0.0000 C   0  0  0  0  0  0  0  0  0  0  0  0
    1.4289    0.8250    0.0000 C   0  0  0  0  0  0  0  0  0  0  0  0
    0.7145    1.2375    0.0000 O   0  0  0  0  0  0  0  0  0  0  0  0
    2.1434    1.2375    0.0000 O   0  0  0  0  0  0  0  0  0  0  0  0
    2.1434    2.0625    0.0000 C   0  0  0  0  0  0  0  0  0  0  0  0
    2.8579    2.4750    0.0000 C   0  0  0  0  0  0  0  0  0  0  0  0
    2.8579    3.3000    0.0000 C   0  0  0  0  0  0  0  0  0  0  0  0
    3.5724    3.7125    0.0000 C   0  0  0  0  0  0  0  0  0  0  0  0
    4.2868    3.3000    0.0000 C   0  0  0  0  0  0  0  0  0  0  0  0
    4.2868    2.4750    0.0000 C   0  0  0  0  0  0  0  0  0  0  0  0
    3.5724    2.0625    0.0000 C   0  0  0  0  0  0  0  0  0  0  0  0
    2.1434   -0.4125    0.0000 C   0  0  0  0  0  0  0  0  0  0  0  0
    2.8579    0.0000    0.0000 C   0  0  0  0  0  0  0  0  0  0  0  0
    3.5724   -0.4125    0.0000 C   0  0  0  0  0  0  0  0  0  0  0  0
    4.2868   -0.0000    0.0000 C   0  0  0  0  0  0  0  0  0  0  0  0
    3.5724   -1.2375    0.0000 C   0  0  0  0  0  0  0  0  0  0  0  0
    2.8579   -1.6500    0.0000 C   0  0  0  0  0  0  0  0  0  0  0  0
    2.1434   -1.2375    0.0000 C   0  0  0  0  0  0  0  0  0  0  0  0
    1.4289   -1.6500    0.0000 N   0  0  0  0  0  0  0  0  0  0  0  0
    0.0000   -2.4750    0.0000 C   0  0  0  0  0  0  0  0  0  0  0  0
   -0.7145   -2.8875    0.0000 C   0  0  0  0  0  0  0  0  0  0  0  0
  1  2  1  0  0  0  0
  2  3  1  0  0  0  0
  3  4  4  0  0  0  0
  4  5  4  0  0  0  0
  5  6  4  0  0  0  0
  6  7  1  0  0  0  0
  7  8  4  0  0  0  0
  8  9  4  0  0  0  0
  9 10  1  0  0  0  0
 10 11  2  0  0  0  0
 10 12  1  0  0  0  0
 12 13  1  0  0  0  0
 13 14  1  0  0  0  0
 14 15  4  0  0  0  0
 15 16  4  0  0  0  0
 16 17  4  0  0  0  0
 17 18  4  0  0  0  0
 18 19  4  0  0  0  0
 14 19  4  0  0  0  0
  9 20  4  0  0  0  0
 20 21  4  0  0  0  0
 21 22  4  0  0  0  0
 22 23  1  0  0  0  0
 22 24  4  0  0  0  0
 24 25  4  0  0  0  0
 25 26  4  0  0  0  0
 20 26  4  0  0  0  0
 26 27  4  0  0  0  0
  7 27  4  0  0  0  0
  6 28  4  0  0  0  0
 28 29  4  0  0  0  0
  3 29  4  0  0  0  0
M  END
> <IC50(uM)>
1.96

> <Outcome>
0.0

> <BindingDB ID>
51311346

> <BindingDB MonomerID>
50532170

> <BindingDB Ligand Name>
CHEMBL4464999

> <Curation/DataSource>
ChEMBL

> <Article DOI>
10.1016/j.bmcl.2019.01.038

> <PMID>
30738663

> <Patent Number>
?

> <Authors>
Vyas, VK; Qureshi, G; Oza, D; Patel, H; Parmar, K; Patel, P; Ghate, MD

> <Link to Ligand in BindingDB>
http://www.bindingdb.org/bind/chemsearch/marvin/MolStructure.jsp?monomerid=50532170

> <Link to Ligand-Target Pair in BindingDB>
http://www.bindingdb.org/jsp/dbsearch/PrimarySearch_ki.jsp?energyterm=kJ/mole&tag=r21&monomerid=50532170&enzyme=Dihydroorotate+dehydrogenase&column=ki&startPg=0&Increment=50&submit=Search

> <PubChem CID>
155530731

> <PubChem SID>
440740752

$$$$

  Mrv2115 07222212352D          

 22 24  0  0  0  0            999 V2000
    4.7812    1.9354    0.0000 C   0  0  0  0  0  0  0  0  0  0  0  0
    4.0668    2.3479    0.0000 C   0  0  0  0  0  0  0  0  0  0  0  0
    3.3523    1.9354    0.0000 C   0  0  0  0  0  0  0  0  0  0  0  0
    3.3523    1.1104    0.0000 C   0  0  0  0  0  0  0  0  0  0  0  0
    2.6378    0.6979    0.0000 C   0  0  0  0  0  0  0  0  0  0  0  0
    2.6378   -0.1271    0.0000 O   0  0  0  0  0  0  0  0  0  0  0  0
    1.9233    1.1104    0.0000 N   0  0  0  0  0  0  0  0  0  0  0  0
    1.1387    0.8555    0.0000 N   0  0  0  0  0  0  0  0  0  0  0  0
    0.6538    1.5229    0.0000 C   0  0  0  0  0  0  0  0  0  0  0  0
   -0.1712    1.5229    0.0000 S   0  0  0  0  0  0  0  0  0  0  0  0
   -0.5837    0.8085    0.0000 C   0  0  0  0  0  0  0  0  0  0  0  0
   -1.4087    0.8085    0.0000 C   0  0  0  0  0  0  0  0  0  0  0  0
   -1.8212    0.0940    0.0000 C   0  0  0  0  0  0  0  0  0  0  0  0
   -2.6462    0.0940    0.0000 C   0  0  0  0  0  0  0  0  0  0  0  0
   -3.0587   -0.6205    0.0000 Cl  0  0  0  0  0  0  0  0  0  0  0  0
   -3.0587    0.8085    0.0000 C   0  0  0  0  0  0  0  0  0  0  0  0
   -2.6462    1.5229    0.0000 C   0  0  0  0  0  0  0  0  0  0  0  0
   -1.8212    1.5229    0.0000 C   0  0  0  0  0  0  0  0  0  0  0  0
   -1.4087    2.2374    0.0000 Cl  0  0  0  0  0  0  0  0  0  0  0  0
    1.1387    2.1904    0.0000 N   0  0  0  0  0  0  0  0  0  0  0  0
    1.9233    1.9354    0.0000 C   0  0  0  0  0  0  0  0  0  0  0  0
    2.6378    2.3479    0.0000 N   0  0  0  0  0  0  0  0  0  0  0  0
  1  2  1  0  0  0  0
  2  3  1  0  0  0  0
  3  4  4  0  0  0  0
  4  5  4  0  0  0  0
  5  6  2  0  0  0  0
  5  7  4  0  0  0  0
  7  8  4  0  0  0  0
  8  9  4  0  0  0  0
  9 10  1  0  0  0  0
 10 11  1  0  0  0  0
 11 12  1  0  0  0  0
 12 13  4  0  0  0  0
 13 14  4  0  0  0  0
 14 15  1  0  0  0  0
 14 16  4  0  0  0  0
 16 17  4  0  0  0  0
 17 18  4  0  0  0  0
 12 18  4  0  0  0  0
 18 19  1  0  0  0  0
  9 20  4  0  0  0  0
 20 21  4  0  0  0  0
  7 21  4  0  0  0  0
 21 22  4  0  0  0  0
  3 22  4  0  0  0  0
M  STY  1   1 DAT
M  SAL   1  1   8
M  SDT   1 MRV_IMPLICIT_H                                        
M  SDD   1     0.5304   -0.4125    DR    ALL  0       0  
M  SED   1 IMPL_H1
M  END
> <IC50(uM)>
0.013

> <Outcome>
1.0

> <BindingDB ID>
50970243

> <BindingDB MonomerID>
50397816

> <BindingDB Ligand Name>
CHEMBL2177861

> <Curation/DataSource>
ChEMBL

> <Article DOI>
10.1021/jm300157n

> <PMID>
22621375

> <Patent Number>
?

> <Authors>
Bedingfield, PT; Cowen, D; Acklam, P; Cunningham, F; Parsons, MR; McConkey, GA; Fishwick, CW; Johnson, AP

> <Link to Ligand in BindingDB>
http://www.bindingdb.org/bind/chemsearch/marvin/MolStructure.jsp?monomerid=50397816

> <Link to Ligand-Target Pair in BindingDB>
http://www.bindingdb.org/jsp/dbsearch/PrimarySearch_ki.jsp?energyterm=kJ/mole&tag=r21&monomerid=50397816&enzyme=Dihydroorotate+dehydrogenase&column=ki&startPg=0&Increment=50&submit=Search

> <PubChem CID>
60166617

> <PubChem SID>
163346840

$$$$

  Mrv2115 07222212352D          

 29 31  0  0  0  0            999 V2000
    0.7145   -3.7125    0.0000 O   0  0  0  0  0  0  0  0  0  0  0  0
    1.4289   -4.1250    0.0000 C   0  0  0  0  0  0  0  0  0  0  0  0
    2.1434   -3.7125    0.0000 O   0  0  0  0  0  0  0  0  0  0  0  0
    1.4289   -4.9500    0.0000 C   0  0  0  0  0  0  0  0  0  0  0  0
    2.0964   -5.4349    0.0000 C   0  0  0  0  0  0  0  0  0  0  0  0
    2.8810   -5.1800    0.0000 C   0  0  0  0  0  0  0  0  0  0  0  0
    3.4941   -5.7320    0.0000 O   0  0  0  0  0  0  0  0  0  0  0  0
    3.0525   -4.3730    0.0000 N   0  0  0  0  0  0  0  0  0  0  0  0
    3.8372   -4.1181    0.0000 C   0  0  0  0  0  0  0  0  0  0  0  0
    4.0087   -3.3111    0.0000 C   0  0  0  0  0  0  0  0  0  0  0  0
    4.7933   -3.0562    0.0000 C   0  0  0  0  0  0  0  0  0  0  0  0
    5.4064   -3.6082    0.0000 C   0  0  0  0  0  0  0  0  0  0  0  0
    6.1910   -3.3533    0.0000 C   0  0  0  0  0  0  0  0  0  0  0  0
    6.3625   -2.5463    0.0000 C   0  0  0  0  0  0  0  0  0  0  0  0
    7.1472   -2.2913    0.0000 C   0  0  0  0  0  0  0  0  0  0  0  0
    7.7603   -2.8434    0.0000 C   0  0  0  0  0  0  0  0  0  0  0  0
    8.5449   -2.5884    0.0000 O   0  0  0  0  0  0  0  0  0  0  0  0
    8.7164   -1.7815    0.0000 C   0  0  0  0  0  0  0  0  0  0  0  0
    8.8879   -0.9745    0.0000 F   0  0  0  0  0  0  0  0  0  0  0  0
    9.5234   -1.9530    0.0000 F   0  0  0  0  0  0  0  0  0  0  0  0
    7.9094   -1.6099    0.0000 F   0  0  0  0  0  0  0  0  0  0  0  0
    7.5887   -3.6503    0.0000 C   0  0  0  0  0  0  0  0  0  0  0  0
    6.8041   -3.9053    0.0000 C   0  0  0  0  0  0  0  0  0  0  0  0
    5.2349   -4.4152    0.0000 C   0  0  0  0  0  0  0  0  0  0  0  0
    4.4502   -4.6701    0.0000 C   0  0  0  0  0  0  0  0  0  0  0  0
    4.2787   -5.4771    0.0000 F   0  0  0  0  0  0  0  0  0  0  0  0
    1.8414   -6.2195    0.0000 C   0  0  0  0  0  0  0  0  0  0  0  0
    1.0164   -6.2195    0.0000 C   0  0  0  0  0  0  0  0  0  0  0  0
    0.7615   -5.4349    0.0000 C   0  0  0  0  0  0  0  0  0  0  0  0
  1  2  2  0  0  0  0
  2  3  1  0  0  0  0
  2  4  1  0  0  0  0
  4  5  2  0  0  0  0
  5  6  1  0  0  0  0
  6  7  2  0  0  0  0
  6  8  1  0  0  0  0
  8  9  1  0  0  0  0
  9 10  4  0  0  0  0
 10 11  4  0  0  0  0
 11 12  4  0  0  0  0
 12 13  1  0  0  0  0
 13 14  4  0  0  0  0
 14 15  4  0  0  0  0
 15 16  4  0  0  0  0
 16 17  1  0  0  0  0
 17 18  1  0  0  0  0
 18 19  1  0  0  0  0
 18 20  1  0  0  0  0
 18 21  1  0  0  0  0
 16 22  4  0  0  0  0
 22 23  4  0  0  0  0
 13 23  4  0  0  0  0
 12 24  4  0  0  0  0
 24 25  4  0  0  0  0
  9 25  4  0  0  0  0
 25 26  1  0  0  0  0
  5 27  1  0  0  0  0
 27 28  1  0  0  0  0
 28 29  1  0  0  0  0
  4 29  1  0  0  0  0
M  END
> <IC50(uM)>
5.7

> <Outcome>
0.0

> <BindingDB ID>
50251707

> <BindingDB MonomerID>
50137292

> <BindingDB Ligand Name>
2-(3-Fluoro-4'-trifluoromethoxy-biphenyl-4-ylcarbamoyl)-cyclopent-1-enecarboxylic acid::CHEMBL154214

> <Curation/DataSource>
ChEMBL

> <Article DOI>
10.1016/j.bmcl.2003.10.021

> <PMID>
14684297

> <Patent Number>
?

> <Authors>
Leban, J; Saeb, W; Garcia, G; Baumgartner, R; Kramer, B

> <Link to Ligand in BindingDB>
http://www.bindingdb.org/bind/chemsearch/marvin/MolStructure.jsp?monomerid=50137292

> <Link to Ligand-Target Pair in BindingDB>
http://www.bindingdb.org/jsp/dbsearch/PrimarySearch_ki.jsp?energyterm=kJ/mole&tag=r21&monomerid=50137292&enzyme=Dihydroorotate+dehydrogenase&column=ki&startPg=0&Increment=50&submit=Search

> <PubChem CID>
21084763

> <PubChem SID>
104027458

$$$$

  Mrv2115 07222212352D          

 33 35  0  0  0  0            999 V2000
    2.1434   -3.7125    0.0000 C   0  0  0  0  0  0  0  0  0  0  0  0
    2.8579   -4.1250    0.0000 C   0  0  0  0  0  0  0  0  0  0  0  0
    2.8579   -4.9500    0.0000 C   0  0  0  0  0  0  0  0  0  0  0  0
    3.5724   -3.7125    0.0000 C   0  0  0  0  0  0  0  0  0  0  0  0
    4.2868   -4.1250    0.0000 C   0  0  0  0  0  0  0  0  0  0  0  0
    4.2868   -4.9500    0.0000 C   0  0  0  0  0  0  0  0  0  0  0  0
    5.0013   -3.7125    0.0000 O   0  0  0  0  0  0  0  0  0  0  0  0
    5.0013   -2.8875    0.0000 C   0  0  0  0  0  0  0  0  0  0  0  0
    4.2868   -2.4750    0.0000 C   0  0  0  0  0  0  0  0  0  0  0  0
    4.2868   -1.6500    0.0000 C   0  0  0  0  0  0  0  0  0  0  0  0
    3.5724   -1.2375    0.0000 N   0  0  0  0  0  0  0  0  0  0  0  0
    2.8187   -1.5731    0.0000 N   0  0  0  0  0  0  0  0  0  0  0  0
    2.2666   -0.9600    0.0000 C   0  0  0  0  0  0  0  0  0  0  0  0
    1.4462   -1.0462    0.0000 C   0  0  0  0  0  0  0  0  0  0  0  0
    0.9612   -0.3788    0.0000 C   0  0  0  0  0  0  0  0  0  0  0  0
    1.1106   -1.7999    0.0000 C   0  0  0  0  0  0  0  0  0  0  0  0
    2.6791   -0.2455    0.0000 N   0  0  0  0  0  0  0  0  0  0  0  0
    2.3436    0.5082    0.0000 C   0  0  0  0  0  0  0  0  0  0  0  0
    3.4861   -0.4170    0.0000 C   0  0  0  0  0  0  0  0  0  0  0  0
    4.0992    0.1350    0.0000 O   0  0  0  0  0  0  0  0  0  0  0  0
    5.0013   -1.2375    0.0000 C   0  0  0  0  0  0  0  0  0  0  0  0
    5.0013   -0.4125    0.0000 F   0  0  0  0  0  0  0  0  0  0  0  0
    5.7158   -1.6500    0.0000 C   0  0  0  0  0  0  0  0  0  0  0  0
    5.7158   -2.4750    0.0000 C   0  0  0  0  0  0  0  0  0  0  0  0
    6.4302   -2.8875    0.0000 C   0  0  0  0  0  0  0  0  0  0  0  0
    6.4302   -3.7125    0.0000 O   0  0  0  0  0  0  0  0  0  0  0  0
    7.1447   -2.4750    0.0000 N   0  0  0  0  0  0  0  0  0  0  0  0
    7.8592   -2.8875    0.0000 C   0  0  0  0  0  0  0  0  0  0  0  0
    8.5737   -2.4750    0.0000 C   0  0  0  0  0  0  0  0  0  0  0  0
    9.2881   -2.8875    0.0000 C   0  0  0  0  0  0  0  0  0  0  0  0
    9.2881   -3.7125    0.0000 C   0  0  0  0  0  0  0  0  0  0  0  0
    8.5737   -4.1250    0.0000 C   0  0  0  0  0  0  0  0  0  0  0  0
    7.8592   -3.7125    0.0000 N   0  0  0  0  0  0  0  0  0  0  0  0
  1  2  1  0  0  0  0
  2  3  1  0  0  0  0
  2  4  1  0  0  0  0
  4  5  1  0  0  0  0
  5  6  1  0  0  0  0
  5  7  1  0  0  0  0
  7  8  1  0  0  0  0
  8  9  4  0  0  0  0
  9 10  4  0  0  0  0
 10 11  1  0  0  0  0
 11 12  4  0  0  0  0
 12 13  4  0  0  0  0
 13 14  1  0  0  0  0
 14 15  1  0  0  0  0
 14 16  1  0  0  0  0
 13 17  4  0  0  0  0
 17 18  1  0  0  0  0
 17 19  4  0  0  0  0
 11 19  4  0  0  0  0
 19 20  2  0  0  0  0
 10 21  4  0  0  0  0
 21 22  1  0  0  0  0
 21 23  4  0  0  0  0
 23 24  4  0  0  0  0
  8 24  4  0  0  0  0
 24 25  1  0  0  0  0
 25 26  2  0  0  0  0
 25 27  1  0  0  0  0
 27 28  1  0  0  0  0
 28 29  4  0  0  0  0
 29 30  4  0  0  0  0
 30 31  4  0  0  0  0
 31 32  4  0  0  0  0
 32 33  4  0  0  0  0
 28 33  4  0  0  0  0
M  END
> <IC50(uM)>
18.0

> <Outcome>
0.0

> <BindingDB ID>
1098762; 972608

> <BindingDB MonomerID>
470498

> <BindingDB Ligand Name>
5-fluoro-4-[4-methyl-5-oxo-3-(propan-2-yl)-4,5-dihydro-1H-1,2,4-triazol-1-yl]-2-{[(2S)-4-methylpentan-2-yl]oxy}-N-(pyridin-2-yl)benzamide::US10815215, Example 150::US11130745, Example 150; 5-fluoro-4-[4-methyl-5-oxo-3-(propan-2-yl)-4,5-dihydro-1H-1,2,4-triazol-1-yl]-2-{[(2S)-4-methylpentan-2-yl]oxy}-N-(pyridin-2-yl)benzamide::US10815215, Example 150

> <Curation/DataSource>
US Patent

> <Article DOI>
?

> <PMID>
?

> <Patent Number>
US11130745; US10815215

> <Authors>
Gradl, SN; Nguyen, D; Eis, K; Gunther, J; Stellfeld, T; Janzer, A; Christian, S; Muller, T; Sheikh, SE; Sykes, DB; Ferrara, SJ; Krober, M; Merz, C; Niehues, M; Schafer, M; Zimmermann, K; Nising, CF; Gradl, SN; Nguyen, D; Eis, K; Gunther, J; Stellfeld, T; Janzer, A; Christian, S; Muller, T; Sheikh, SE; Zhou, HJ; Zhao, C; Sykes, DB; Ferrara, SJ; Liu, K; Krober, M; Merz, C; Niehues, M; Schafer, M; Zimmermann, K; Nising, CF

> <Link to Ligand in BindingDB>
http://www.bindingdb.org/bind/chemsearch/marvin/MolStructure.jsp?monomerid=470498

> <Link to Ligand-Target Pair in BindingDB>
http://www.bindingdb.org/jsp/dbsearch/PrimarySearch_ki.jsp?energyterm=kJ/mole&tag=r21&monomerid=470498&enzyme=Dihydroorotate+dehydrogenase&column=ki&startPg=0&Increment=50&submit=Search

> <PubChem CID>
134470202

> <PubChem SID>
441609675

$$$$

  Mrv2115 07222212352D          

 28 30  0  0  0  0            999 V2000
   -0.7145    1.2375    0.0000 C   0  0  0  0  0  0  0  0  0  0  0  0
    0.0000    0.8250    0.0000 C   0  0  0  0  0  0  0  0  0  0  0  0
    0.0000   -0.0000    0.0000 O   0  0  0  0  0  0  0  0  0  0  0  0
    0.7145   -0.4125    0.0000 C   0  0  0  0  0  0  0  0  0  0  0  0
    1.4289   -0.0000    0.0000 O   0  0  0  0  0  0  0  0  0  0  0  0
    0.7145   -1.2375    0.0000 C   0  0  0  0  0  0  0  0  0  0  0  0
    1.3819   -1.7224    0.0000 S   0  0  0  0  0  0  0  0  0  0  0  0
    1.1270   -2.5070    0.0000 C   0  0  0  0  0  0  0  0  0  0  0  0
    1.6119   -3.1745    0.0000 N   0  0  0  0  0  0  0  0  0  0  0  0
    1.2763   -3.9282    0.0000 C   0  0  0  0  0  0  0  0  0  0  0  0
    1.7613   -4.5956    0.0000 C   0  0  0  0  0  0  0  0  0  0  0  0
    1.4257   -5.3493    0.0000 C   0  0  0  0  0  0  0  0  0  0  0  0
    0.6052   -5.4355    0.0000 C   0  0  0  0  0  0  0  0  0  0  0  0
    0.2697   -6.1892    0.0000 Cl  0  0  0  0  0  0  0  0  0  0  0  0
    0.1203   -4.7681    0.0000 C   0  0  0  0  0  0  0  0  0  0  0  0
   -0.7002   -4.8543    0.0000 C   0  0  0  0  0  0  0  0  0  0  0  0
   -1.5207   -4.9405    0.0000 F   0  0  0  0  0  0  0  0  0  0  0  0
   -0.7864   -4.0338    0.0000 F   0  0  0  0  0  0  0  0  0  0  0  0
   -0.6139   -5.6748    0.0000 F   0  0  0  0  0  0  0  0  0  0  0  0
    0.4559   -4.0144    0.0000 C   0  0  0  0  0  0  0  0  0  0  0  0
    0.3020   -2.5070    0.0000 N   0  0  0  0  0  0  0  0  0  0  0  0
    0.0470   -1.7224    0.0000 C   0  0  0  0  0  0  0  0  0  0  0  0
   -0.7376   -1.4675    0.0000 C   0  0  0  0  0  0  0  0  0  0  0  0
   -1.3507   -2.0195    0.0000 C   0  0  0  0  0  0  0  0  0  0  0  0
   -2.1353   -1.7646    0.0000 C   0  0  0  0  0  0  0  0  0  0  0  0
   -2.3068   -0.9576    0.0000 C   0  0  0  0  0  0  0  0  0  0  0  0
   -1.6937   -0.4056    0.0000 C   0  0  0  0  0  0  0  0  0  0  0  0
   -0.9091   -0.6605    0.0000 C   0  0  0  0  0  0  0  0  0  0  0  0
  1  2  1  0  0  0  0
  2  3  1  0  0  0  0
  3  4  1  0  0  0  0
  4  5  2  0  0  0  0
  4  6  1  0  0  0  0
  6  7  4  0  0  0  0
  7  8  4  0  0  0  0
  8  9  1  0  0  0  0
  9 10  1  0  0  0  0
 10 11  4  0  0  0  0
 11 12  4  0  0  0  0
 12 13  4  0  0  0  0
 13 14  1  0  0  0  0
 13 15  4  0  0  0  0
 15 16  1  0  0  0  0
 16 17  1  0  0  0  0
 16 18  1  0  0  0  0
 16 19  1  0  0  0  0
 15 20  4  0  0  0  0
 10 20  4  0  0  0  0
  8 21  4  0  0  0  0
 21 22  4  0  0  0  0
  6 22  4  0  0  0  0
 22 23  1  0  0  0  0
 23 24  4  0  0  0  0
 24 25  4  0  0  0  0
 25 26  4  0  0  0  0
 26 27  4  0  0  0  0
 27 28  4  0  0  0  0
 23 28  4  0  0  0  0
M  END
> <IC50(uM)>
0.131

> <Outcome>
1.0

> <BindingDB ID>
50312263

> <BindingDB MonomerID>
50071601

> <BindingDB Ligand Name>
CHEMBL3410602

> <Curation/DataSource>
ChEMBL

> <Article DOI>
10.1021/jm501127s

> <PMID>
25580811

> <Patent Number>
?

> <Authors>
Zhu, J; Han, L; Diao, Y; Ren, X; Xu, M; Xu, L; Li, S; Li, Q; Dong, D; Huang, J; Liu, X; Zhao, Z; Wang, R; Zhu, L; Xu, Y; Qian, X; Li, H

> <Link to Ligand in BindingDB>
http://www.bindingdb.org/bind/chemsearch/marvin/MolStructure.jsp?monomerid=50071601

> <Link to Ligand-Target Pair in BindingDB>
http://www.bindingdb.org/jsp/dbsearch/PrimarySearch_ki.jsp?energyterm=kJ/mole&tag=r21&monomerid=50071601&enzyme=Dihydroorotate+dehydrogenase&column=ki&startPg=0&Increment=50&submit=Search

> <PubChem CID>
118732513

> <PubChem SID>
313072548

$$$$

  Mrv2115 07222212352D          

 28 30  0  0  0  0            999 V2000
   -6.4302    2.8875    0.0000 O   0  0  0  0  0  0  0  0  0  0  0  0
   -5.7158    3.3000    0.0000 C   0  0  0  0  0  0  0  0  0  0  0  0
   -5.7158    4.1250    0.0000 O   0  0  0  0  0  0  0  0  0  0  0  0
   -5.0013    2.8875    0.0000 C   0  0  0  0  0  0  0  0  0  0  0  0
   -4.2868    3.3000    0.0000 C   0  0  0  0  0  0  0  0  0  0  0  0
   -3.5724    2.8875    0.0000 C   0  0  0  0  0  0  0  0  0  0  0  0
   -3.5724    2.0625    0.0000 C   0  0  0  0  0  0  0  0  0  0  0  0
   -2.8579    1.6500    0.0000 C   0  0  0  0  0  0  0  0  0  0  0  0
   -2.8579    0.8250    0.0000 C   0  0  0  0  0  0  0  0  0  0  0  0
   -2.1434    0.4125    0.0000 C   0  0  0  0  0  0  0  0  0  0  0  0
   -1.4289    0.8250    0.0000 C   0  0  0  0  0  0  0  0  0  0  0  0
   -0.7145    0.4125    0.0000 C   0  0  0  0  0  0  0  0  0  0  0  0
    0.0000    0.8250    0.0000 C   0  0  0  0  0  0  0  0  0  0  0  0
    0.7145    0.4125    0.0000 C   0  0  0  0  0  0  0  0  0  0  0  0
    1.4289    0.8250    0.0000 C   0  0  0  0  0  0  0  0  0  0  0  0
    1.4289    1.6500    0.0000 C   0  0  0  0  0  0  0  0  0  0  0  0
    2.1434    2.0625    0.0000 O   0  0  0  0  0  0  0  0  0  0  0  0
    0.7145    2.0625    0.0000 O   0  0  0  0  0  0  0  0  0  0  0  0
    2.1434    0.4125    0.0000 N   0  0  0  0  0  0  0  0  0  0  0  0
    2.1434   -0.4125    0.0000 C   0  0  0  0  0  0  0  0  0  0  0  0
    2.8579   -0.8250    0.0000 O   0  0  0  0  0  0  0  0  0  0  0  0
    1.4289   -0.8250    0.0000 N   0  0  0  0  0  0  0  0  0  0  0  0
    0.7145   -0.4125    0.0000 C   0  0  0  0  0  0  0  0  0  0  0  0
    0.0000   -0.8250    0.0000 O   0  0  0  0  0  0  0  0  0  0  0  0
   -3.5724    0.4125    0.0000 C   0  0  0  0  0  0  0  0  0  0  0  0
   -4.2868    0.8250    0.0000 C   0  0  0  0  0  0  0  0  0  0  0  0
   -4.2868    1.6500    0.0000 C   0  0  0  0  0  0  0  0  0  0  0  0
   -5.0013    2.0625    0.0000 C   0  0  0  0  0  0  0  0  0  0  0  0
  1  2  2  0  0  0  0
  2  3  1  0  0  0  0
  2  4  1  0  0  0  0
  4  5  4  0  0  0  0
  5  6  4  0  0  0  0
  6  7  4  0  0  0  0
  7  8  4  0  0  0  0
  8  9  4  0  0  0  0
  9 10  1  0  0  0  0
 10 11  1  0  0  0  0
 11 12  1  0  0  0  0
 12 13  1  0  0  0  0
 13 14  1  0  0  0  0
 14 15  4  0  0  0  0
 15 16  1  0  0  0  0
 16 17  2  0  0  0  0
 16 18  1  0  0  0  0
 15 19  4  0  0  0  0
 19 20  4  0  0  0  0
 20 21  2  0  0  0  0
 20 22  4  0  0  0  0
 22 23  4  0  0  0  0
 14 23  4  0  0  0  0
 23 24  2  0  0  0  0
  9 25  4  0  0  0  0
 25 26  4  0  0  0  0
 26 27  4  0  0  0  0
  7 27  4  0  0  0  0
 27 28  4  0  0  0  0
  4 28  4  0  0  0  0
M  STY  2   1 DAT   2 DAT
M  SAL   1  1  19
M  SDT   1 MRV_IMPLICIT_H                                        
M  SDD   1     0.5304   -0.4125    DR    ALL  0       0  
M  SED   1 IMPL_H1
M  SAL   2  1  22
M  SDT   2 MRV_IMPLICIT_H                                        
M  SDD   2     0.6482   -0.4125    DR    ALL  0       0  
M  SED   2 IMPL_H1
M  END
> <IC50(uM)>
1.972

> <Outcome>
0.0

> <BindingDB ID>
50555280

> <BindingDB MonomerID>
50211713

> <BindingDB Ligand Name>
CHEMBL3983745

> <Curation/DataSource>
ChEMBL

> <Article DOI>
10.1016/j.bmc.2017.01.009

> <PMID>
28118956

> <Patent Number>
?

> <Authors>
Inaoka, DK; Iida, M; Hashimoto, S; Tabuchi, T; Kuranaga, T; Balogun, EO; Honma, T; Tanaka, A; Harada, S; Nara, T; Kita, K; Inoue, M

> <Link to Ligand in BindingDB>
http://www.bindingdb.org/bind/chemsearch/marvin/MolStructure.jsp?monomerid=50211713

> <Link to Ligand-Target Pair in BindingDB>
http://www.bindingdb.org/jsp/dbsearch/PrimarySearch_ki.jsp?energyterm=kJ/mole&tag=r21&monomerid=50211713&enzyme=Dihydroorotate+dehydrogenase&column=ki&startPg=0&Increment=50&submit=Search

> <PubChem CID>
134157954

> <PubChem SID>
375983056

$$$$

  Mrv2115 07222212352D          

 38 42  0  0  0  0            999 V2000
   -8.0534   -2.1269    0.0000 C   0  0  0  0  0  0  0  0  0  0  0  0
   -7.6409   -1.4124    0.0000 O   0  0  0  0  0  0  0  0  0  0  0  0
   -6.8159   -1.4124    0.0000 C   0  0  0  0  0  0  0  0  0  0  0  0
   -6.4034   -0.6979    0.0000 C   0  0  0  0  0  0  0  0  0  0  0  0
   -5.5784   -0.6979    0.0000 C   0  0  0  0  0  0  0  0  0  0  0  0
   -5.1659   -1.4124    0.0000 C   0  0  0  0  0  0  0  0  0  0  0  0
   -4.3409   -1.4124    0.0000 N   0  0  0  0  0  0  0  0  0  0  0  0
   -3.9284   -0.6979    0.0000 C   0  0  0  0  0  0  0  0  0  0  0  0
   -4.3409    0.0165    0.0000 O   0  0  0  0  0  0  0  0  0  0  0  0
   -3.1034   -0.6979    0.0000 C   0  0  0  0  0  0  0  0  0  0  0  0
   -2.6909    0.0165    0.0000 C   0  0  0  0  0  0  0  0  0  0  0  0
   -1.8659    0.0165    0.0000 C   0  0  0  0  0  0  0  0  0  0  0  0
   -1.4534    0.7310    0.0000 F   0  0  0  0  0  0  0  0  0  0  0  0
   -1.4534   -0.6979    0.0000 C   0  0  0  0  0  0  0  0  0  0  0  0
   -0.6284   -0.6979    0.0000 N   0  0  0  0  0  0  0  0  0  0  0  0
   -0.1435   -1.3654    0.0000 N   0  0  0  0  0  0  0  0  0  0  0  0
    0.6411   -1.1104    0.0000 C   0  0  0  0  0  0  0  0  0  0  0  0
    0.6411   -0.2854    0.0000 N   0  0  0  0  0  0  0  0  0  0  0  0
   -0.1435   -0.0305    0.0000 C   0  0  0  0  0  0  0  0  0  0  0  0
   -0.3984    0.7541    0.0000 O   0  0  0  0  0  0  0  0  0  0  0  0
    1.3556    0.1271    0.0000 C   0  0  0  0  0  0  0  0  0  0  0  0
    2.0701   -0.2854    0.0000 C   0  0  0  0  0  0  0  0  0  0  0  0
    2.0701   -1.1104    0.0000 C   0  0  0  0  0  0  0  0  0  0  0  0
    1.3556   -1.5229    0.0000 C   0  0  0  0  0  0  0  0  0  0  0  0
   -1.8659   -1.4124    0.0000 C   0  0  0  0  0  0  0  0  0  0  0  0
   -2.6909   -1.4124    0.0000 C   0  0  0  0  0  0  0  0  0  0  0  0
   -3.1034   -2.1269    0.0000 O   0  0  0  0  0  0  0  0  0  0  0  0
   -2.6909   -2.8414    0.0000 C   0  0  0  0  0  0  0  0  0  0  0  0
   -1.8659   -2.8414    0.0000 C   0  0  0  0  0  0  0  0  0  0  0  0
   -3.1034   -3.5558    0.0000 C   0  0  0  0  0  0  0  0  0  0  0  0
   -2.6909   -4.2703    0.0000 C   0  0  0  0  0  0  0  0  0  0  0  0
   -3.1034   -4.9848    0.0000 C   0  0  0  0  0  0  0  0  0  0  0  0
   -3.9284   -4.9848    0.0000 C   0  0  0  0  0  0  0  0  0  0  0  0
   -4.3409   -4.2703    0.0000 C   0  0  0  0  0  0  0  0  0  0  0  0
   -3.9284   -3.5558    0.0000 C   0  0  0  0  0  0  0  0  0  0  0  0
   -5.5784   -2.1269    0.0000 C   0  0  0  0  0  0  0  0  0  0  0  0
   -5.1659   -2.8414    0.0000 C   0  0  0  0  0  0  0  0  0  0  0  0
   -6.4034   -2.1269    0.0000 N   0  0  0  0  0  0  0  0  0  0  0  0
  1  2  1  0  0  0  0
  2  3  1  0  0  0  0
  3  4  4  0  0  0  0
  4  5  4  0  0  0  0
  5  6  4  0  0  0  0
  6  7  1  0  0  0  0
  7  8  1  0  0  0  0
  8  9  2  0  0  0  0
  8 10  1  0  0  0  0
 10 11  4  0  0  0  0
 11 12  4  0  0  0  0
 12 13  1  0  0  0  0
 12 14  4  0  0  0  0
 14 15  1  0  0  0  0
 15 16  4  0  0  0  0
 16 17  4  0  0  0  0
 17 18  4  0  0  0  0
 18 19  4  0  0  0  0
 15 19  4  0  0  0  0
 19 20  2  0  0  0  0
 18 21  1  0  0  0  0
 21 22  1  0  0  0  0
 22 23  1  0  0  0  0
 23 24  1  0  0  0  0
 17 24  1  0  0  0  0
 14 25  4  0  0  0  0
 25 26  4  0  0  0  0
 10 26  4  0  0  0  0
 26 27  1  0  0  0  0
 27 28  1  0  0  0  0
 28 29  1  0  0  0  0
 28 30  1  0  0  0  0
 30 31  1  0  0  0  0
 31 32  1  0  0  0  0
 32 33  1  0  0  0  0
 33 34  1  0  0  0  0
 34 35  1  0  0  0  0
 30 35  1  0  0  0  0
  6 36  4  0  0  0  0
 36 37  1  0  0  0  0
 36 38  4  0  0  0  0
  3 38  4  0  0  0  0
M  END
> <IC50(uM)>
0.02

> <Outcome>
1.0

> <BindingDB ID>
1020501

> <BindingDB MonomerID>
490449

> <BindingDB Ligand Name>
2-[(1S)-1-cyclohexylethoxy]-5-fluoro-N-(6-methoxy-2-methylpyridin-3-yl)-4-(3-oxo-5,6,7,8-tetrahydro[1,2,4]triazolo[4,3-a]pyridin-2(3H)-yl)benzamide::US10968216, Example 117

> <Curation/DataSource>
US Patent

> <Article DOI>
?

> <PMID>
?

> <Patent Number>
US10968216

> <Authors>
Gradl, SN; Nguyen, D; Eis, K; Gunther, J; Stellfeld, T; Janzer, A; Christian, S; Mueller, T; Sheikh, SE; Zhou, HJ; Zhao, C; Sykes, DB; Ferrara, SJ; Liu, K; Herbert, SA; Merz, C; Niehues, M; Nising, CF; Schafer, M; Zimmermann, K; Knablein, J; Thede, K; Faupel, T

> <Link to Ligand in BindingDB>
http://www.bindingdb.org/bind/chemsearch/marvin/MolStructure.jsp?monomerid=490449

> <Link to Ligand-Target Pair in BindingDB>
http://www.bindingdb.org/jsp/dbsearch/PrimarySearch_ki.jsp?energyterm=kJ/mole&tag=r21&monomerid=490449&enzyme=Dihydroorotate+dehydrogenase&column=ki&startPg=0&Increment=50&submit=Search

> <PubChem CID>
134474341

> <PubChem SID>
447117176

$$$$

  Mrv2115 07222212352D          

 23 24  0  0  0  0            999 V2000
    0.7145   -1.2375    0.0000 O   0  0  0  0  0  0  0  0  0  0  0  0
    1.4289   -1.6500    0.0000 C   0  0  0  0  0  0  0  0  0  0  0  0
    2.1434   -1.2375    0.0000 O   0  0  0  0  0  0  0  0  0  0  0  0
    1.4289   -2.4750    0.0000 C   0  0  0  0  0  0  0  0  0  0  0  0
    2.1434   -2.8875    0.0000 N   0  0  0  0  0  0  0  0  0  0  0  0
    2.1434   -3.7125    0.0000 C   0  0  0  0  0  0  0  0  0  0  0  0
    2.8579   -4.1250    0.0000 O   0  0  0  0  0  0  0  0  0  0  0  0
    1.4289   -4.1250    0.0000 N   0  0  0  0  0  0  0  0  0  0  0  0
    0.7145   -3.7125    0.0000 C   0  0  0  0  0  0  0  0  0  0  0  0
    0.0000   -4.1250    0.0000 O   0  0  0  0  0  0  0  0  0  0  0  0
    0.7145   -2.8875    0.0000 C   0  0  0  0  0  0  0  0  0  0  0  0
    0.0000   -2.4750    0.0000 C   0  0  0  0  0  0  0  0  0  0  0  0
   -0.7145   -2.8875    0.0000 C   0  0  0  0  0  0  0  0  0  0  0  0
   -1.4289   -2.4750    0.0000 C   0  0  0  0  0  0  0  0  0  0  0  0
   -2.1434   -2.8875    0.0000 C   0  0  0  0  0  0  0  0  0  0  0  0
   -2.8579   -2.4750    0.0000 C   0  0  0  0  0  0  0  0  0  0  0  0
   -2.8579   -1.6500    0.0000 C   0  0  0  0  0  0  0  0  0  0  0  0
   -3.5724   -1.2375    0.0000 C   0  0  0  0  0  0  0  0  0  0  0  0
   -4.2868   -0.8250    0.0000 F   0  0  0  0  0  0  0  0  0  0  0  0
   -3.1599   -0.5230    0.0000 F   0  0  0  0  0  0  0  0  0  0  0  0
   -3.9849   -1.9520    0.0000 F   0  0  0  0  0  0  0  0  0  0  0  0
   -2.1434   -1.2375    0.0000 C   0  0  0  0  0  0  0  0  0  0  0  0
   -1.4289   -1.6500    0.0000 C   0  0  0  0  0  0  0  0  0  0  0  0
  1  2  2  0  0  0  0
  2  3  1  0  0  0  0
  2  4  1  0  0  0  0
  4  5  4  0  0  0  0
  5  6  4  0  0  0  0
  6  7  2  0  0  0  0
  6  8  4  0  0  0  0
  8  9  4  0  0  0  0
  9 10  2  0  0  0  0
  9 11  4  0  0  0  0
  4 11  4  0  0  0  0
 11 12  1  0  0  0  0
 12 13  1  0  0  0  0
 13 14  1  0  0  0  0
 14 15  4  0  0  0  0
 15 16  4  0  0  0  0
 16 17  4  0  0  0  0
 17 18  1  0  0  0  0
 18 19  1  0  0  0  0
 18 20  1  0  0  0  0
 18 21  1  0  0  0  0
 17 22  4  0  0  0  0
 22 23  4  0  0  0  0
 14 23  4  0  0  0  0
M  STY  2   1 DAT   2 DAT
M  SAL   1  1   5
M  SDT   1 MRV_IMPLICIT_H                                        
M  SDD   1     0.5304   -0.4125    DR    ALL  0       0  
M  SED   1 IMPL_H1
M  SAL   2  1   8
M  SDT   2 MRV_IMPLICIT_H                                        
M  SDD   2     0.6482   -0.4125    DR    ALL  0       0  
M  SED   2 IMPL_H1
M  END
> <IC50(uM)>
0.719

> <Outcome>
1.0

> <BindingDB ID>
50555335

> <BindingDB MonomerID>
50211962

> <BindingDB Ligand Name>
CHEMBL3897952

> <Curation/DataSource>
ChEMBL

> <Article DOI>
10.1016/j.bmc.2017.01.009

> <PMID>
28118956

> <Patent Number>
?

> <Authors>
Inaoka, DK; Iida, M; Hashimoto, S; Tabuchi, T; Kuranaga, T; Balogun, EO; Honma, T; Tanaka, A; Harada, S; Nara, T; Kita, K; Inoue, M

> <Link to Ligand in BindingDB>
http://www.bindingdb.org/bind/chemsearch/marvin/MolStructure.jsp?monomerid=50211962

> <Link to Ligand-Target Pair in BindingDB>
http://www.bindingdb.org/jsp/dbsearch/PrimarySearch_ki.jsp?energyterm=kJ/mole&tag=r21&monomerid=50211962&enzyme=Dihydroorotate+dehydrogenase&column=ki&startPg=0&Increment=50&submit=Search

> <PubChem CID>
134134345

> <PubChem SID>
375983082

$$$$

  Mrv2115 07222212352D          

 31 34  0  0  0  0            999 V2000
   -2.0492    1.8319    0.0000 C   0  0  0  0  0  0  0  0  0  0  0  0
   -1.2288    1.7457    0.0000 C   0  0  0  0  0  0  0  0  0  0  0  0
   -0.7438    2.4131    0.0000 O   0  0  0  0  0  0  0  0  0  0  0  0
   -0.8932    0.9920    0.0000 C   0  0  0  0  0  0  0  0  0  0  0  0
   -0.0862    0.8205    0.0000 N   0  0  0  0  0  0  0  0  0  0  0  0
    0.0000   -0.0000    0.0000 C   0  0  0  0  0  0  0  0  0  0  0  0
    0.7145   -0.4125    0.0000 C   0  0  0  0  0  0  0  0  0  0  0  0
    1.4289    0.0000    0.0000 C   0  0  0  0  0  0  0  0  0  0  0  0
    2.1434   -0.4125    0.0000 C   0  0  0  0  0  0  0  0  0  0  0  0
    2.8579    0.0000    0.0000 C   0  0  0  0  0  0  0  0  0  0  0  0
    2.8579    0.8250    0.0000 C   0  0  0  0  0  0  0  0  0  0  0  0
    3.5724    1.2375    0.0000 C   0  0  0  0  0  0  0  0  0  0  0  0
    2.1434    1.2375    0.0000 C   0  0  0  0  0  0  0  0  0  0  0  0
    3.5724   -0.4125    0.0000 C   0  0  0  0  0  0  0  0  0  0  0  0
    3.5724   -1.2375    0.0000 N   0  0  0  0  0  0  0  0  0  0  0  0
    4.2868   -1.6500    0.0000 C   0  0  0  0  0  0  0  0  0  0  0  0
    5.0013   -1.2375    0.0000 C   0  0  0  0  0  0  0  0  0  0  0  0
    5.7158   -1.6500    0.0000 C   0  0  0  0  0  0  0  0  0  0  0  0
    5.7158   -2.4750    0.0000 C   0  0  0  0  0  0  0  0  0  0  0  0
    5.0013   -2.8875    0.0000 C   0  0  0  0  0  0  0  0  0  0  0  0
    4.2868   -2.4750    0.0000 C   0  0  0  0  0  0  0  0  0  0  0  0
    3.5724   -2.8875    0.0000 C   0  0  0  0  0  0  0  0  0  0  0  0
    2.8579   -1.6500    0.0000 C   0  0  0  0  0  0  0  0  0  0  0  0
    2.8579   -2.4750    0.0000 O   0  0  0  0  0  0  0  0  0  0  0  0
    2.1434   -1.2375    0.0000 C   0  0  0  0  0  0  0  0  0  0  0  0
    1.4289   -1.6500    0.0000 C   0  0  0  0  0  0  0  0  0  0  0  0
    0.7145   -1.2375    0.0000 C   0  0  0  0  0  0  0  0  0  0  0  0
    0.0000   -1.6500    0.0000 F   0  0  0  0  0  0  0  0  0  0  0  0
   -0.7537   -0.3356    0.0000 N   0  0  0  0  0  0  0  0  0  0  0  0
   -1.3057    0.2775    0.0000 N   0  0  0  0  0  0  0  0  0  0  0  0
   -2.1262    0.1913    0.0000 C   0  0  0  0  0  0  0  0  0  0  0  0
  1  2  1  0  0  0  0
  2  3  2  0  0  0  0
  2  4  1  0  0  0  0
  4  5  4  0  0  0  0
  5  6  4  0  0  0  0
  6  7  1  0  0  0  0
  7  8  4  0  0  0  0
  8  9  4  0  0  0  0
  9 10  4  0  0  0  0
 10 11  1  0  0  0  0
 11 12  1  0  0  0  0
 11 13  1  0  0  0  0
 10 14  4  0  0  0  0
 14 15  4  0  0  0  0
 15 16  1  0  0  0  0
 16 17  4  0  0  0  0
 17 18  4  0  0  0  0
 18 19  4  0  0  0  0
 19 20  4  0  0  0  0
 20 21  4  0  0  0  0
 16 21  4  0  0  0  0
 21 22  1  0  0  0  0
 15 23  4  0  0  0  0
 23 24  2  0  0  0  0
 23 25  4  0  0  0  0
  9 25  4  0  0  0  0
 25 26  4  0  0  0  0
 26 27  4  0  0  0  0
  7 27  4  0  0  0  0
 27 28  1  0  0  0  0
  6 29  4  0  0  0  0
 29 30  4  0  0  0  0
  4 30  4  0  0  0  0
 30 31  1  0  0  0  0
M  END
> <IC50(uM)>
0.0016999999999999997

> <Outcome>
1.0

> <BindingDB ID>
1121368

> <BindingDB MonomerID>
530434

> <BindingDB Ligand Name>
6-(5-Acetyl-1-methyl-1H-1,2,4-triazol-3-yl)-7-fluoro-4-isopropyl-2-(o- tolyl)isoquinolin-1(2H)-one.::WO2022070068, Example 6

> <Curation/DataSource>
Curated from the literature by BindingDB

> <Article DOI>
?

> <PMID>
WO2022070068

> <Patent Number>
?

> <Authors>
Lindsey, D; Scott, K; Zhuming, Z

> <Link to Ligand in BindingDB>
http://www.bindingdb.org/bind/chemsearch/marvin/MolStructure.jsp?monomerid=530434

> <Link to Ligand-Target Pair in BindingDB>
http://www.bindingdb.org/jsp/dbsearch/PrimarySearch_ki.jsp?energyterm=kJ/mole&tag=r21&monomerid=530434&enzyme=Dihydroorotate+dehydrogenase&column=ki&startPg=0&Increment=50&submit=Search

> <PubChem CID>
?

> <PubChem SID>
?

$$$$

  Mrv2115 07222212352D          

 29 31  0  0  0  0            999 V2000
    0.0000   -8.5917    0.0000 C   0  0  0  0  0  0  0  0  0  0  0  0
    0.7145   -9.0042    0.0000 C   0  0  0  0  0  0  0  0  0  0  0  0
    1.4289   -8.5917    0.0000 C   0  0  0  0  0  0  0  0  0  0  0  0
    2.1434   -9.0042    0.0000 N   0  0  0  0  0  0  0  0  0  0  0  0
    2.8579   -8.5917    0.0000 C   0  0  0  0  0  0  0  0  0  0  0  0
    2.8579   -7.7667    0.0000 O   0  0  0  0  0  0  0  0  0  0  0  0
    3.5724   -9.0042    0.0000 N   0  0  0  0  0  0  0  0  0  0  0  0
    4.3692   -8.7907    0.0000 C   0  0  0  0  0  0  0  0  0  0  0  0
    4.7817   -8.0762    0.0000 C   0  0  0  0  0  0  0  0  0  0  0  0
    5.1942   -7.3618    0.0000 N   0  0  0  0  0  0  0  0  0  0  0  0
    4.5828   -9.5876    0.0000 C   0  0  0  0  0  0  0  0  0  0  0  0
    5.2972  -10.0001    0.0000 C   0  0  0  0  0  0  0  0  0  0  0  0
    6.0117   -9.5876    0.0000 C   0  0  0  0  0  0  0  0  0  0  0  0
    6.7262  -10.0001    0.0000 C   0  0  0  0  0  0  0  0  0  0  0  0
    6.7262  -10.8251    0.0000 C   0  0  0  0  0  0  0  0  0  0  0  0
    7.4407  -11.2376    0.0000 C   0  0  0  0  0  0  0  0  0  0  0  0
    8.1551  -11.6501    0.0000 C   0  0  0  0  0  0  0  0  0  0  0  0
    8.8696  -12.0626    0.0000 C   0  0  0  0  0  0  0  0  0  0  0  0
    9.5841  -11.6501    0.0000 C   0  0  0  0  0  0  0  0  0  0  0  0
   10.2985  -12.0626    0.0000 C   0  0  0  0  0  0  0  0  0  0  0  0
   10.2985  -12.8876    0.0000 C   0  0  0  0  0  0  0  0  0  0  0  0
    9.5841  -13.3001    0.0000 C   0  0  0  0  0  0  0  0  0  0  0  0
    9.5841  -14.1251    0.0000 F   0  0  0  0  0  0  0  0  0  0  0  0
    8.8696  -12.8876    0.0000 C   0  0  0  0  0  0  0  0  0  0  0  0
    6.0117  -11.2376    0.0000 C   0  0  0  0  0  0  0  0  0  0  0  0
    5.2972  -10.8251    0.0000 C   0  0  0  0  0  0  0  0  0  0  0  0
    3.7859   -9.8011    0.0000 C   0  0  0  0  0  0  0  0  0  0  0  0
    3.3734  -10.5156    0.0000 C   0  0  0  0  0  0  0  0  0  0  0  0
    2.5484  -10.5156    0.0000 O   0  0  0  0  0  0  0  0  0  0  0  0
  1  2  1  0  0  0  0
  2  3  1  0  0  0  0
  3  4  1  0  0  0  0
  4  5  1  0  0  0  0
  5  6  2  0  0  0  0
  5  7  1  0  0  0  0
  7  8  1  0  0  0  0
  8  9  1  0  0  0  0
  9 10  3  0  0  0  0
  8 11  1  0  0  0  0
 11 12  1  0  0  0  0
 12 13  4  0  0  0  0
 13 14  4  0  0  0  0
 14 15  4  0  0  0  0
 15 16  1  0  0  0  0
 16 17  3  0  0  0  0
 17 18  1  0  0  0  0
 18 19  4  0  0  0  0
 19 20  4  0  0  0  0
 20 21  4  0  0  0  0
 21 22  4  0  0  0  0
 22 23  1  0  0  0  0
 22 24  4  0  0  0  0
 18 24  4  0  0  0  0
 15 25  4  0  0  0  0
 25 26  4  0  0  0  0
 12 26  4  0  0  0  0
 11 27  1  0  0  0  0
  7 27  1  0  0  0  0
 27 28  1  0  0  0  0
 28 29  1  0  0  0  0
M  END
> <IC50(uM)>
50.0

> <Outcome>
0.0

> <BindingDB ID>
50682092

> <BindingDB MonomerID>
50231826

> <BindingDB Ligand Name>
CHEMBL2362347

> <Curation/DataSource>
ChEMBL

> <Article DOI>
10.1021/acsmedchemlett.7b00030

> <PMID>
28435533

> <Patent Number>
?

> <Authors>
Maetani, M; Kato, N; Jabor, VAP; Calil, FA; Nonato, MC; Scherer, CA; Schreiber, SL

> <Link to Ligand in BindingDB>
http://www.bindingdb.org/bind/chemsearch/marvin/MolStructure.jsp?monomerid=50231826

> <Link to Ligand-Target Pair in BindingDB>
http://www.bindingdb.org/jsp/dbsearch/PrimarySearch_ki.jsp?energyterm=kJ/mole&tag=r21&monomerid=50231826&enzyme=Dihydroorotate+dehydrogenase&column=ki&startPg=0&Increment=50&submit=Search

> <PubChem CID>
54650356

> <PubChem SID>
384226301

$$$$

  Mrv2115 07222212352D          

 28 32  0  0  0  0            999 V2000
    3.5724   -2.8875    0.0000 O   0  0  0  0  0  0  0  0  0  0  0  0
    3.5724   -3.7125    0.0000 C   0  0  0  0  0  0  0  0  0  0  0  0
    4.2868   -4.1250    0.0000 O   0  0  0  0  0  0  0  0  0  0  0  0
    2.8579   -4.1250    0.0000 C   0  0  0  0  0  0  0  0  0  0  0  0
    2.8579   -4.9500    0.0000 C   0  0  0  0  0  0  0  0  0  0  0  0
    2.1434   -5.3625    0.0000 C   0  0  0  0  0  0  0  0  0  0  0  0
    2.1434   -6.1875    0.0000 C   0  0  0  0  0  0  0  0  0  0  0  0
    2.5559   -6.9020    0.0000 C   0  0  0  0  0  0  0  0  0  0  0  0
    1.7309   -6.9020    0.0000 C   0  0  0  0  0  0  0  0  0  0  0  0
    1.4289   -4.9500    0.0000 C   0  0  0  0  0  0  0  0  0  0  0  0
    1.4289   -4.1250    0.0000 C   0  0  0  0  0  0  0  0  0  0  0  0
    2.1434   -3.7125    0.0000 C   0  0  0  0  0  0  0  0  0  0  0  0
    2.1434   -2.8875    0.0000 N   0  0  0  0  0  0  0  0  0  0  0  0
    1.4289   -2.4750    0.0000 C   0  0  0  0  0  0  0  0  0  0  0  0
    0.7145   -2.8875    0.0000 C   0  0  0  0  0  0  0  0  0  0  0  0
    0.0000   -2.4750    0.0000 N   0  0  0  0  0  0  0  0  0  0  0  0
    0.0000   -1.6500    0.0000 C   0  0  0  0  0  0  0  0  0  0  0  0
   -0.7145   -1.2375    0.0000 C   0  0  0  0  0  0  0  0  0  0  0  0
   -1.5395   -1.2375    0.0000 C   0  0  0  0  0  0  0  0  0  0  0  0
   -1.1270   -0.5230    0.0000 C   0  0  0  0  0  0  0  0  0  0  0  0
    0.7145   -1.2375    0.0000 C   0  0  0  0  0  0  0  0  0  0  0  0
    0.7145   -0.4125    0.0000 C   0  0  0  0  0  0  0  0  0  0  0  0
    0.0000    0.0000    0.0000 C   0  0  0  0  0  0  0  0  0  0  0  0
    0.0000    0.8250    0.0000 C   0  0  0  0  0  0  0  0  0  0  0  0
    0.7145    1.2375    0.0000 C   0  0  0  0  0  0  0  0  0  0  0  0
    1.4289    0.8250    0.0000 C   0  0  0  0  0  0  0  0  0  0  0  0
    1.4289    0.0000    0.0000 C   0  0  0  0  0  0  0  0  0  0  0  0
    1.4289   -1.6500    0.0000 C   0  0  0  0  0  0  0  0  0  0  0  0
  1  2  2  0  0  0  0
  2  3  1  0  0  0  0
  2  4  1  0  0  0  0
  4  5  4  0  0  0  0
  5  6  4  0  0  0  0
  6  7  1  0  0  0  0
  7  8  1  0  0  0  0
  8  9  1  0  0  0  0
  7  9  1  0  0  0  0
  6 10  4  0  0  0  0
 10 11  4  0  0  0  0
 11 12  4  0  0  0  0
  4 12  4  0  0  0  0
 12 13  1  0  0  0  0
 13 14  1  0  0  0  0
 14 15  4  0  0  0  0
 15 16  4  0  0  0  0
 16 17  4  0  0  0  0
 17 18  1  0  0  0  0
 18 19  1  0  0  0  0
 19 20  1  0  0  0  0
 18 20  1  0  0  0  0
 17 21  4  0  0  0  0
 21 22  1  0  0  0  0
 22 23  4  0  0  0  0
 23 24  4  0  0  0  0
 24 25  4  0  0  0  0
 25 26  4  0  0  0  0
 26 27  4  0  0  0  0
 22 27  4  0  0  0  0
 21 28  4  0  0  0  0
 14 28  4  0  0  0  0
M  END
> <IC50(uM)>
0.028

> <Outcome>
1.0

> <BindingDB ID>
219986

> <BindingDB MonomerID>
102456

> <BindingDB Ligand Name>
US8536165, 25

> <Curation/DataSource>
US Patent

> <Article DOI>
?

> <PMID>
?

> <Patent Number>
US8536165

> <Authors>
Castro Palomino Laria, JC; Terricabras Belart, E; Erra Sola, M; Navarro Romero, E; Fonquerna Pou, S; Cardus Figueras, A; Lozoya Toribio, ME

> <Link to Ligand in BindingDB>
http://www.bindingdb.org/bind/chemsearch/marvin/MolStructure.jsp?monomerid=102456

> <Link to Ligand-Target Pair in BindingDB>
http://www.bindingdb.org/jsp/dbsearch/PrimarySearch_ki.jsp?energyterm=kJ/mole&tag=r21&monomerid=102456&enzyme=Dihydroorotate+dehydrogenase&column=ki&startPg=0&Increment=50&submit=Search

> <PubChem CID>
25186998

> <PubChem SID>
172097747

$$$$

  Mrv2115 07222212352D          

 33 37  0  0  0  0            999 V2000
    4.0668    2.3479    0.0000 C   0  0  0  0  0  0  0  0  0  0  0  0
    3.3523    1.9354    0.0000 C   0  0  0  0  0  0  0  0  0  0  0  0
    3.3523    1.1104    0.0000 C   0  0  0  0  0  0  0  0  0  0  0  0
    2.6378    0.6979    0.0000 C   0  0  0  0  0  0  0  0  0  0  0  0
    2.6378   -0.1271    0.0000 C   0  0  0  0  0  0  0  0  0  0  0  0
    1.9233   -0.5396    0.0000 O   0  0  0  0  0  0  0  0  0  0  0  0
    3.3523   -0.5396    0.0000 O   0  0  0  0  0  0  0  0  0  0  0  0
    1.9233    1.1104    0.0000 C   0  0  0  0  0  0  0  0  0  0  0  0
    1.1387    0.8555    0.0000 N   0  0  0  0  0  0  0  0  0  0  0  0
    0.6538    1.5229    0.0000 C   0  0  0  0  0  0  0  0  0  0  0  0
   -0.1712    1.5229    0.0000 C   0  0  0  0  0  0  0  0  0  0  0  0
   -0.5837    0.8085    0.0000 C   0  0  0  0  0  0  0  0  0  0  0  0
   -1.4087    0.8085    0.0000 C   0  0  0  0  0  0  0  0  0  0  0  0
   -1.8212    1.5229    0.0000 C   0  0  0  0  0  0  0  0  0  0  0  0
   -2.6462    1.5229    0.0000 C   0  0  0  0  0  0  0  0  0  0  0  0
   -3.0587    0.8085    0.0000 C   0  0  0  0  0  0  0  0  0  0  0  0
   -3.8837    0.8085    0.0000 C   0  0  0  0  0  0  0  0  0  0  0  0
   -4.2962    1.5229    0.0000 C   0  0  0  0  0  0  0  0  0  0  0  0
   -5.1212    1.5229    0.0000 O   0  0  0  0  0  0  0  0  0  0  0  0
   -5.5337    0.8085    0.0000 C   0  0  0  0  0  0  0  0  0  0  0  0
   -6.3587    0.8085    0.0000 C   0  0  0  0  0  0  0  0  0  0  0  0
   -6.7712    0.0940    0.0000 C   0  0  0  0  0  0  0  0  0  0  0  0
   -7.5962    0.0940    0.0000 C   0  0  0  0  0  0  0  0  0  0  0  0
   -8.0087    0.8085    0.0000 C   0  0  0  0  0  0  0  0  0  0  0  0
   -7.5962    1.5229    0.0000 N   0  0  0  0  0  0  0  0  0  0  0  0
   -6.7712    1.5229    0.0000 C   0  0  0  0  0  0  0  0  0  0  0  0
   -3.8837    2.2374    0.0000 C   0  0  0  0  0  0  0  0  0  0  0  0
   -3.0587    2.2374    0.0000 C   0  0  0  0  0  0  0  0  0  0  0  0
   -1.4087    2.2374    0.0000 C   0  0  0  0  0  0  0  0  0  0  0  0
   -0.5837    2.2374    0.0000 C   0  0  0  0  0  0  0  0  0  0  0  0
    1.1387    2.1904    0.0000 N   0  0  0  0  0  0  0  0  0  0  0  0
    1.9233    1.9354    0.0000 C   0  0  0  0  0  0  0  0  0  0  0  0
    2.6378    2.3479    0.0000 C   0  0  0  0  0  0  0  0  0  0  0  0
  1  2  1  0  0  0  0
  2  3  4  0  0  0  0
  3  4  4  0  0  0  0
  4  5  1  0  0  0  0
  5  6  2  0  0  0  0
  5  7  1  0  0  0  0
  4  8  4  0  0  0  0
  8  9  4  0  0  0  0
  9 10  4  0  0  0  0
 10 11  1  0  0  0  0
 11 12  4  0  0  0  0
 12 13  4  0  0  0  0
 13 14  4  0  0  0  0
 14 15  1  0  0  0  0
 15 16  4  0  0  0  0
 16 17  4  0  0  0  0
 17 18  4  0  0  0  0
 18 19  1  0  0  0  0
 19 20  1  0  0  0  0
 20 21  1  0  0  0  0
 21 22  4  0  0  0  0
 22 23  4  0  0  0  0
 23 24  4  0  0  0  0
 24 25  4  0  0  0  0
 25 26  4  0  0  0  0
 21 26  4  0  0  0  0
 18 27  4  0  0  0  0
 27 28  4  0  0  0  0
 15 28  4  0  0  0  0
 14 29  4  0  0  0  0
 29 30  4  0  0  0  0
 11 30  4  0  0  0  0
 10 31  4  0  0  0  0
 31 32  4  0  0  0  0
  8 32  4  0  0  0  0
 32 33  4  0  0  0  0
  2 33  4  0  0  0  0
M  STY  1   1 DAT
M  SAL   1  1  31
M  SDT   1 MRV_IMPLICIT_H                                        
M  SDD   1     0.5304   -0.4125    DR    ALL  0       0  
M  SED   1 IMPL_H1
M  END
> <IC50(uM)>
0.755

> <Outcome>
1.0

> <BindingDB ID>
297822

> <BindingDB MonomerID>
155478

> <BindingDB Ligand Name>
US9006454, I120

> <Curation/DataSource>
US Patent

> <Article DOI>
?

> <PMID>
?

> <Patent Number>
US9006454

> <Authors>
Thunuguntla, SS; Subramanya, H; Kunnam, SR; Sanivaru Vijay, SR; Bingi, C; Kusanur, R; Schwarz, M; Arlt, M

> <Link to Ligand in BindingDB>
http://www.bindingdb.org/bind/chemsearch/marvin/MolStructure.jsp?monomerid=155478

> <Link to Ligand-Target Pair in BindingDB>
http://www.bindingdb.org/jsp/dbsearch/PrimarySearch_ki.jsp?energyterm=kJ/mole&tag=r21&monomerid=155478&enzyme=Dihydroorotate+dehydrogenase&column=ki&startPg=0&Increment=50&submit=Search

> <PubChem CID>
58073804

> <PubChem SID>
253658415

$$$$

  Mrv2115 07222212352D          

 34 36  0  0  0  0            999 V2000
    2.1434   -3.7125    0.0000 C   0  0  0  0  0  0  0  0  0  0  0  0
    2.8579   -4.1250    0.0000 C   0  0  0  0  0  0  0  0  0  0  0  0
    3.5724   -3.7125    0.0000 C   0  0  0  0  0  0  0  0  0  0  0  0
    4.2868   -4.1250    0.0000 C   0  0  0  0  0  0  0  0  0  0  0  0
    4.2868   -4.9500    0.0000 C   0  0  0  0  0  0  0  0  0  0  0  0
    5.0013   -3.7125    0.0000 O   0  0  0  0  0  0  0  0  0  0  0  0
    5.0013   -2.8875    0.0000 C   0  0  0  0  0  0  0  0  0  0  0  0
    4.2868   -2.4750    0.0000 C   0  0  0  0  0  0  0  0  0  0  0  0
    4.2868   -1.6500    0.0000 C   0  0  0  0  0  0  0  0  0  0  0  0
    3.5724   -1.2375    0.0000 N   0  0  0  0  0  0  0  0  0  0  0  0
    2.8187   -1.5731    0.0000 N   0  0  0  0  0  0  0  0  0  0  0  0
    2.2666   -0.9600    0.0000 C   0  0  0  0  0  0  0  0  0  0  0  0
    1.4462   -1.0462    0.0000 C   0  0  0  0  0  0  0  0  0  0  0  0
    2.6791   -0.2455    0.0000 N   0  0  0  0  0  0  0  0  0  0  0  0
    2.3436    0.5082    0.0000 C   0  0  0  0  0  0  0  0  0  0  0  0
    1.5231    0.5944    0.0000 C   0  0  0  0  0  0  0  0  0  0  0  0
    2.8285    1.1756    0.0000 C   0  0  0  0  0  0  0  0  0  0  0  0
    3.4861   -0.4170    0.0000 C   0  0  0  0  0  0  0  0  0  0  0  0
    4.0992    0.1350    0.0000 O   0  0  0  0  0  0  0  0  0  0  0  0
    5.0013   -1.2375    0.0000 C   0  0  0  0  0  0  0  0  0  0  0  0
    5.0013   -0.4125    0.0000 F   0  0  0  0  0  0  0  0  0  0  0  0
    5.7158   -1.6500    0.0000 C   0  0  0  0  0  0  0  0  0  0  0  0
    5.7158   -2.4750    0.0000 C   0  0  0  0  0  0  0  0  0  0  0  0
    6.4302   -2.8875    0.0000 C   0  0  0  0  0  0  0  0  0  0  0  0
    6.4302   -3.7125    0.0000 O   0  0  0  0  0  0  0  0  0  0  0  0
    7.1447   -2.4750    0.0000 N   0  0  0  0  0  0  0  0  0  0  0  0
    7.8592   -2.8875    0.0000 C   0  0  0  0  0  0  0  0  0  0  0  0
    8.5737   -2.4750    0.0000 C   0  0  0  0  0  0  0  0  0  0  0  0
    8.5737   -1.6500    0.0000 C   0  0  0  0  0  0  0  0  0  0  0  0
    9.2881   -2.8875    0.0000 C   0  0  0  0  0  0  0  0  0  0  0  0
    9.2881   -3.7125    0.0000 C   0  0  0  0  0  0  0  0  0  0  0  0
    8.5737   -4.1250    0.0000 C   0  0  0  0  0  0  0  0  0  0  0  0
    7.8592   -3.7125    0.0000 C   0  0  0  0  0  0  0  0  0  0  0  0
    7.1447   -4.1250    0.0000 F   0  0  0  0  0  0  0  0  0  0  0  0
  1  2  1  0  0  0  0
  2  3  1  0  0  0  0
  3  4  1  0  0  0  0
  4  5  1  0  0  0  0
  4  6  1  0  0  0  0
  6  7  1  0  0  0  0
  7  8  4  0  0  0  0
  8  9  4  0  0  0  0
  9 10  1  0  0  0  0
 10 11  4  0  0  0  0
 11 12  4  0  0  0  0
 12 13  1  0  0  0  0
 12 14  4  0  0  0  0
 14 15  1  0  0  0  0
 15 16  1  0  0  0  0
 15 17  1  0  0  0  0
 14 18  4  0  0  0  0
 10 18  4  0  0  0  0
 18 19  2  0  0  0  0
  9 20  4  0  0  0  0
 20 21  1  0  0  0  0
 20 22  4  0  0  0  0
 22 23  4  0  0  0  0
  7 23  4  0  0  0  0
 23 24  1  0  0  0  0
 24 25  2  0  0  0  0
 24 26  1  0  0  0  0
 26 27  1  0  0  0  0
 27 28  4  0  0  0  0
 28 29  1  0  0  0  0
 28 30  4  0  0  0  0
 30 31  4  0  0  0  0
 31 32  4  0  0  0  0
 32 33  4  0  0  0  0
 27 33  4  0  0  0  0
 33 34  1  0  0  0  0
M  END
> <IC50(uM)>
0.027999999999999997

> <Outcome>
1.0

> <BindingDB ID>
1098605; 972451; 1098606; 972452

> <BindingDB MonomerID>
470349

> <BindingDB Ligand Name>
5-fluoro-N-(2-fluoro-6-methylphenyl)-4-[3-methyl-5-oxo-4-(propan-2-yl)-4,5-dihydro-1H-1,2,4-triazol-1-yl]-2-[(2S)-pentan-2-yloxy]benzamide::US10815215, Example 11::US11130745, Example 11; 5-fluoro-N-(2-fluoro-6-methylphenyl)-4-[3-methyl-5-oxo-4-(propan-2-yl)-4,5-dihydro-1H-1,2,4-triazol-1-yl]-2-[(2S)-pentan-2-yloxy]benzamide::US10815215, Example 11

> <Curation/DataSource>
US Patent

> <Article DOI>
?

> <PMID>
?

> <Patent Number>
US11130745; US10815215

> <Authors>
Gradl, SN; Nguyen, D; Eis, K; Gunther, J; Stellfeld, T; Janzer, A; Christian, S; Muller, T; Sheikh, SE; Sykes, DB; Ferrara, SJ; Krober, M; Merz, C; Niehues, M; Schafer, M; Zimmermann, K; Nising, CF; Gradl, SN; Nguyen, D; Eis, K; Gunther, J; Stellfeld, T; Janzer, A; Christian, S; Muller, T; Sheikh, SE; Zhou, HJ; Zhao, C; Sykes, DB; Ferrara, SJ; Liu, K; Krober, M; Merz, C; Niehues, M; Schafer, M; Zimmermann, K; Nising, CF

> <Link to Ligand in BindingDB>
http://www.bindingdb.org/bind/chemsearch/marvin/MolStructure.jsp?monomerid=470349

> <Link to Ligand-Target Pair in BindingDB>
http://www.bindingdb.org/jsp/dbsearch/PrimarySearch_ki.jsp?energyterm=kJ/mole&tag=r21&monomerid=470349&enzyme=Dihydroorotate+dehydrogenase&column=ki&startPg=0&Increment=50&submit=Search

> <PubChem CID>
134470137

> <PubChem SID>
441609526

$$$$

  Mrv2115 07222212352D          

 27 31  0  0  0  0            999 V2000
    2.3815    3.9995    0.0000 N   0  0  0  0  0  0  0  0  0  0  0  0
    2.8664    3.3320    0.0000 C   0  0  0  0  0  0  0  0  0  0  0  0
    3.6914    3.3320    0.0000 N   0  0  0  0  0  0  0  0  0  0  0  0
    3.9464    2.5474    0.0000 N   0  0  0  0  0  0  0  0  0  0  0  0
    3.2789    2.0625    0.0000 C   0  0  0  0  0  0  0  0  0  0  0  0
    3.2789    1.2375    0.0000 C   0  0  0  0  0  0  0  0  0  0  0  0
    3.9934    0.8250    0.0000 C   0  0  0  0  0  0  0  0  0  0  0  0
    3.9934    0.0000    0.0000 C   0  0  0  0  0  0  0  0  0  0  0  0
    3.2789   -0.4125    0.0000 C   0  0  0  0  0  0  0  0  0  0  0  0
    2.5645    0.0000    0.0000 C   0  0  0  0  0  0  0  0  0  0  0  0
    1.7798   -0.2549    0.0000 N   0  0  0  0  0  0  0  0  0  0  0  0
    1.2949    0.4125    0.0000 C   0  0  0  0  0  0  0  0  0  0  0  0
    0.4699    0.4125    0.0000 C   0  0  0  0  0  0  0  0  0  0  0  0
    0.0574   -0.3020    0.0000 C   0  0  0  0  0  0  0  0  0  0  0  0
   -0.7676   -0.3020    0.0000 C   0  0  0  0  0  0  0  0  0  0  0  0
   -1.1801    0.4125    0.0000 C   0  0  0  0  0  0  0  0  0  0  0  0
   -2.0051    0.4125    0.0000 C   0  0  0  0  0  0  0  0  0  0  0  0
   -2.4176   -0.3020    0.0000 C   0  0  0  0  0  0  0  0  0  0  0  0
   -3.2426   -0.3020    0.0000 C   0  0  0  0  0  0  0  0  0  0  0  0
   -3.6551    0.4125    0.0000 C   0  0  0  0  0  0  0  0  0  0  0  0
   -3.2426    1.1270    0.0000 C   0  0  0  0  0  0  0  0  0  0  0  0
   -2.4176    1.1270    0.0000 C   0  0  0  0  0  0  0  0  0  0  0  0
   -0.7676    1.1270    0.0000 C   0  0  0  0  0  0  0  0  0  0  0  0
    0.0574    1.1270    0.0000 C   0  0  0  0  0  0  0  0  0  0  0  0
    1.7798    1.0799    0.0000 N   0  0  0  0  0  0  0  0  0  0  0  0
    2.5645    0.8250    0.0000 C   0  0  0  0  0  0  0  0  0  0  0  0
    2.6115    2.5474    0.0000 S   0  0  0  0  0  0  0  0  0  0  0  0
  1  2  1  0  0  0  0
  2  3  4  0  0  0  0
  3  4  4  0  0  0  0
  4  5  4  0  0  0  0
  5  6  1  0  0  0  0
  6  7  4  0  0  0  0
  7  8  4  0  0  0  0
  8  9  4  0  0  0  0
  9 10  4  0  0  0  0
 10 11  4  0  0  0  0
 11 12  4  0  0  0  0
 12 13  1  0  0  0  0
 13 14  4  0  0  0  0
 14 15  4  0  0  0  0
 15 16  4  0  0  0  0
 16 17  1  0  0  0  0
 17 18  4  0  0  0  0
 18 19  4  0  0  0  0
 19 20  4  0  0  0  0
 20 21  4  0  0  0  0
 21 22  4  0  0  0  0
 17 22  4  0  0  0  0
 16 23  4  0  0  0  0
 23 24  4  0  0  0  0
 13 24  4  0  0  0  0
 12 25  4  0  0  0  0
 25 26  4  0  0  0  0
  6 26  4  0  0  0  0
 10 26  4  0  0  0  0
  5 27  4  0  0  0  0
  2 27  4  0  0  0  0
M  STY  1   1 DAT
M  SAL   1  1  11
M  SDT   1 MRV_IMPLICIT_H                                        
M  SDD   1     0.5304   -0.4125    DR    ALL  0       0  
M  SED   1 IMPL_H1
M  END
> <IC50(uM)>
15.9

> <Outcome>
0.0

> <BindingDB ID>
297810

> <BindingDB MonomerID>
155466

> <BindingDB Ligand Name>
US9006454, I108

> <Curation/DataSource>
US Patent

> <Article DOI>
?

> <PMID>
?

> <Patent Number>
US9006454

> <Authors>
Thunuguntla, SS; Subramanya, H; Kunnam, SR; Sanivaru Vijay, SR; Bingi, C; Kusanur, R; Schwarz, M; Arlt, M

> <Link to Ligand in BindingDB>
http://www.bindingdb.org/bind/chemsearch/marvin/MolStructure.jsp?monomerid=155466

> <Link to Ligand-Target Pair in BindingDB>
http://www.bindingdb.org/jsp/dbsearch/PrimarySearch_ki.jsp?energyterm=kJ/mole&tag=r21&monomerid=155466&enzyme=Dihydroorotate+dehydrogenase&column=ki&startPg=0&Increment=50&submit=Search

> <PubChem CID>
58073754

> <PubChem SID>
253658403

$$$$

  Mrv2115 07222212352D          

 21 23  0  0  0  0            999 V2000
    4.7812    1.9354    0.0000 C   0  0  0  0  0  0  0  0  0  0  0  0
    4.0668    2.3479    0.0000 C   0  0  0  0  0  0  0  0  0  0  0  0
    3.3523    1.9354    0.0000 C   0  0  0  0  0  0  0  0  0  0  0  0
    3.3523    1.1104    0.0000 C   0  0  0  0  0  0  0  0  0  0  0  0
    2.6378    0.6979    0.0000 C   0  0  0  0  0  0  0  0  0  0  0  0
    2.6378   -0.1271    0.0000 O   0  0  0  0  0  0  0  0  0  0  0  0
    1.9233    1.1104    0.0000 N   0  0  0  0  0  0  0  0  0  0  0  0
    1.1387    0.8555    0.0000 N   0  0  0  0  0  0  0  0  0  0  0  0
    0.6538    1.5229    0.0000 C   0  0  0  0  0  0  0  0  0  0  0  0
   -0.1712    1.5229    0.0000 S   0  0  0  0  0  0  0  0  0  0  0  0
   -0.5837    0.8085    0.0000 C   0  0  0  0  0  0  0  0  0  0  0  0
   -1.4087    0.8085    0.0000 C   0  0  0  0  0  0  0  0  0  0  0  0
   -1.8212    0.0940    0.0000 C   0  0  0  0  0  0  0  0  0  0  0  0
   -2.6462    0.0940    0.0000 C   0  0  0  0  0  0  0  0  0  0  0  0
   -3.0587    0.8085    0.0000 C   0  0  0  0  0  0  0  0  0  0  0  0
   -3.8837    0.8085    0.0000 Cl  0  0  0  0  0  0  0  0  0  0  0  0
   -2.6462    1.5229    0.0000 C   0  0  0  0  0  0  0  0  0  0  0  0
   -1.8212    1.5229    0.0000 C   0  0  0  0  0  0  0  0  0  0  0  0
    1.1387    2.1904    0.0000 N   0  0  0  0  0  0  0  0  0  0  0  0
    1.9233    1.9354    0.0000 C   0  0  0  0  0  0  0  0  0  0  0  0
    2.6378    2.3479    0.0000 N   0  0  0  0  0  0  0  0  0  0  0  0
  1  2  1  0  0  0  0
  2  3  1  0  0  0  0
  3  4  4  0  0  0  0
  4  5  4  0  0  0  0
  5  6  2  0  0  0  0
  5  7  4  0  0  0  0
  7  8  4  0  0  0  0
  8  9  4  0  0  0  0
  9 10  1  0  0  0  0
 10 11  1  0  0  0  0
 11 12  1  0  0  0  0
 12 13  4  0  0  0  0
 13 14  4  0  0  0  0
 14 15  4  0  0  0  0
 15 16  1  0  0  0  0
 15 17  4  0  0  0  0
 17 18  4  0  0  0  0
 12 18  4  0  0  0  0
  9 19  4  0  0  0  0
 19 20  4  0  0  0  0
  7 20  4  0  0  0  0
 20 21  4  0  0  0  0
  3 21  4  0  0  0  0
M  STY  1   1 DAT
M  SAL   1  1   8
M  SDT   1 MRV_IMPLICIT_H                                        
M  SDD   1     0.5304   -0.4125    DR    ALL  0       0  
M  SED   1 IMPL_H1
M  END
> <IC50(uM)>
13.0

> <Outcome>
0.0

> <BindingDB ID>
50970244

> <BindingDB MonomerID>
50397817

> <BindingDB Ligand Name>
CHEMBL2177860

> <Curation/DataSource>
ChEMBL

> <Article DOI>
10.1021/jm300157n

> <PMID>
22621375

> <Patent Number>
?

> <Authors>
Bedingfield, PT; Cowen, D; Acklam, P; Cunningham, F; Parsons, MR; McConkey, GA; Fishwick, CW; Johnson, AP

> <Link to Ligand in BindingDB>
http://www.bindingdb.org/bind/chemsearch/marvin/MolStructure.jsp?monomerid=50397817

> <Link to Ligand-Target Pair in BindingDB>
http://www.bindingdb.org/jsp/dbsearch/PrimarySearch_ki.jsp?energyterm=kJ/mole&tag=r21&monomerid=50397817&enzyme=Dihydroorotate+dehydrogenase&column=ki&startPg=0&Increment=50&submit=Search

> <PubChem CID>
60166487

> <PubChem SID>
163346841

$$$$

  Mrv2115 07222212352D          

 30 33  0  0  0  0            999 V2000
   -2.1434    1.2375    0.0000 C   0  0  0  0  0  0  0  0  0  0  0  0
   -1.4289    0.8250    0.0000 C   0  0  0  0  0  0  0  0  0  0  0  0
   -0.7145    1.2375    0.0000 C   0  0  0  0  0  0  0  0  0  0  0  0
    0.0000    0.8250    0.0000 N   0  0  0  0  0  0  0  0  0  0  0  0
    0.0000   -0.0000    0.0000 C   0  0  0  0  0  0  0  0  0  0  0  0
    0.7145   -0.4125    0.0000 C   0  0  0  0  0  0  0  0  0  0  0  0
    1.4289    0.0000    0.0000 C   0  0  0  0  0  0  0  0  0  0  0  0
    2.1434   -0.4125    0.0000 C   0  0  0  0  0  0  0  0  0  0  0  0
    2.8579    0.0000    0.0000 C   0  0  0  0  0  0  0  0  0  0  0  0
    2.8579    0.8250    0.0000 C   0  0  0  0  0  0  0  0  0  0  0  0
    3.5724    1.2375    0.0000 C   0  0  0  0  0  0  0  0  0  0  0  0
    2.1434    1.2375    0.0000 C   0  0  0  0  0  0  0  0  0  0  0  0
    3.5724   -0.4125    0.0000 C   0  0  0  0  0  0  0  0  0  0  0  0
    3.5724   -1.2375    0.0000 N   0  0  0  0  0  0  0  0  0  0  0  0
    4.2868   -1.6500    0.0000 C   0  0  0  0  0  0  0  0  0  0  0  0
    5.0013   -1.2375    0.0000 C   0  0  0  0  0  0  0  0  0  0  0  0
    5.7158   -1.6500    0.0000 C   0  0  0  0  0  0  0  0  0  0  0  0
    5.7158   -2.4750    0.0000 C   0  0  0  0  0  0  0  0  0  0  0  0
    5.0013   -2.8875    0.0000 C   0  0  0  0  0  0  0  0  0  0  0  0
    4.2868   -2.4750    0.0000 C   0  0  0  0  0  0  0  0  0  0  0  0
    3.5724   -2.8875    0.0000 C   0  0  0  0  0  0  0  0  0  0  0  0
    2.8579   -1.6500    0.0000 C   0  0  0  0  0  0  0  0  0  0  0  0
    2.8579   -2.4750    0.0000 O   0  0  0  0  0  0  0  0  0  0  0  0
    2.1434   -1.2375    0.0000 C   0  0  0  0  0  0  0  0  0  0  0  0
    1.4289   -1.6500    0.0000 C   0  0  0  0  0  0  0  0  0  0  0  0
    0.7145   -1.2375    0.0000 C   0  0  0  0  0  0  0  0  0  0  0  0
    0.0000   -1.6500    0.0000 F   0  0  0  0  0  0  0  0  0  0  0  0
   -0.7145   -0.4125    0.0000 C   0  0  0  0  0  0  0  0  0  0  0  0
   -1.4289   -0.0000    0.0000 C   0  0  0  0  0  0  0  0  0  0  0  0
   -2.1434   -0.4125    0.0000 N   0  0  0  0  0  0  0  0  0  0  0  0
  1  2  1  0  0  0  0
  2  3  4  0  0  0  0
  3  4  4  0  0  0  0
  4  5  4  0  0  0  0
  5  6  1  0  0  0  0
  6  7  4  0  0  0  0
  7  8  4  0  0  0  0
  8  9  4  0  0  0  0
  9 10  1  0  0  0  0
 10 11  1  0  0  0  0
 10 12  1  0  0  0  0
  9 13  4  0  0  0  0
 13 14  4  0  0  0  0
 14 15  1  0  0  0  0
 15 16  4  0  0  0  0
 16 17  4  0  0  0  0
 17 18  4  0  0  0  0
 18 19  4  0  0  0  0
 19 20  4  0  0  0  0
 15 20  4  0  0  0  0
 20 21  1  0  0  0  0
 14 22  4  0  0  0  0
 22 23  2  0  0  0  0
 22 24  4  0  0  0  0
  8 24  4  0  0  0  0
 24 25  4  0  0  0  0
 25 26  4  0  0  0  0
  6 26  4  0  0  0  0
 26 27  1  0  0  0  0
  5 28  4  0  0  0  0
 28 29  4  0  0  0  0
  2 29  4  0  0  0  0
 29 30  1  0  0  0  0
M  END
> <IC50(uM)>
0.0036

> <Outcome>
1.0

> <BindingDB ID>
1121365

> <BindingDB MonomerID>
530431

> <BindingDB Ligand Name>
6-(4-Amino-5-methylpyridin-2-yl)-7-fluoro-4-isopropyl-2-(o-tolyl)isoquinolin- 1(2H)-one.::WO2022070068, Example 3

> <Curation/DataSource>
Curated from the literature by BindingDB

> <Article DOI>
?

> <PMID>
WO2022070068

> <Patent Number>
?

> <Authors>
Lindsey, D; Scott, K; Zhuming, Z

> <Link to Ligand in BindingDB>
http://www.bindingdb.org/bind/chemsearch/marvin/MolStructure.jsp?monomerid=530431

> <Link to Ligand-Target Pair in BindingDB>
http://www.bindingdb.org/jsp/dbsearch/PrimarySearch_ki.jsp?energyterm=kJ/mole&tag=r21&monomerid=530431&enzyme=Dihydroorotate+dehydrogenase&column=ki&startPg=0&Increment=50&submit=Search

> <PubChem CID>
?

> <PubChem SID>
?

$$$$

  Mrv2115 07222212352D          

 25 27  0  0  0  0            999 V2000
    6.2107   -4.0507    0.0000 C   0  0  0  0  0  0  0  0  0  0  0  0
    5.6586   -3.4376    0.0000 C   0  0  0  0  0  0  0  0  0  0  0  0
    5.9136   -2.6530    0.0000 O   0  0  0  0  0  0  0  0  0  0  0  0
    5.3615   -2.0399    0.0000 C   0  0  0  0  0  0  0  0  0  0  0  0
    4.5546   -2.2114    0.0000 O   0  0  0  0  0  0  0  0  0  0  0  0
    5.6165   -1.2553    0.0000 C   0  0  0  0  0  0  0  0  0  0  0  0
    6.4235   -1.0837    0.0000 C   0  0  0  0  0  0  0  0  0  0  0  0
    7.2304   -0.9122    0.0000 N   0  0  0  0  0  0  0  0  0  0  0  0
    5.0645   -0.6422    0.0000 C   0  0  0  0  0  0  0  0  0  0  0  0
    4.2575   -0.8137    0.0000 N   0  0  0  0  0  0  0  0  0  0  0  0
    3.7054   -0.2006    0.0000 C   0  0  0  0  0  0  0  0  0  0  0  0
    3.9604    0.5840    0.0000 C   0  0  0  0  0  0  0  0  0  0  0  0
    3.4084    1.1971    0.0000 C   0  0  0  0  0  0  0  0  0  0  0  0
    2.6014    1.0256    0.0000 C   0  0  0  0  0  0  0  0  0  0  0  0
    2.3464    0.2410    0.0000 C   0  0  0  0  0  0  0  0  0  0  0  0
    2.8985   -0.3721    0.0000 C   0  0  0  0  0  0  0  0  0  0  0  0
    1.5214    0.2410    0.0000 C   0  0  0  0  0  0  0  0  0  0  0  0
    0.9694   -0.3721    0.0000 C   0  0  0  0  0  0  0  0  0  0  0  0
    0.1624   -0.2006    0.0000 C   0  0  0  0  0  0  0  0  0  0  0  0
   -0.0925    0.5840    0.0000 C   0  0  0  0  0  0  0  0  0  0  0  0
    0.4595    1.1971    0.0000 C   0  0  0  0  0  0  0  0  0  0  0  0
    1.2665    1.0256    0.0000 C   0  0  0  0  0  0  0  0  0  0  0  0
    1.9339    1.5105    0.0000 N   0  0  0  0  0  0  0  0  0  0  0  0
    1.9339    2.3355    0.0000 C   0  0  0  0  0  0  0  0  0  0  0  0
    2.6484    2.7480    0.0000 C   0  0  0  0  0  0  0  0  0  0  0  0
  1  2  1  0  0  0  0
  2  3  1  0  0  0  0
  3  4  1  0  0  0  0
  4  5  2  0  0  0  0
  4  6  1  0  0  0  0
  6  7  1  0  0  0  0
  7  8  3  0  0  0  0
  6  9  2  0  0  0  0
  9 10  1  0  0  0  0
 10 11  1  0  0  0  0
 11 12  4  0  0  0  0
 12 13  4  0  0  0  0
 13 14  4  0  0  0  0
 14 15  4  0  0  0  0
 15 16  4  0  0  0  0
 11 16  4  0  0  0  0
 15 17  4  0  0  0  0
 17 18  4  0  0  0  0
 18 19  4  0  0  0  0
 19 20  4  0  0  0  0
 20 21  4  0  0  0  0
 21 22  4  0  0  0  0
 17 22  4  0  0  0  0
 22 23  4  0  0  0  0
 14 23  4  0  0  0  0
 23 24  1  0  0  0  0
 24 25  1  0  0  0  0
M  END
> <IC50(uM)>
491.0

> <Outcome>
0.0

> <BindingDB ID>
50889930

> <BindingDB MonomerID>
50268993

> <BindingDB Ligand Name>
CHEMBL218703

> <Curation/DataSource>
ChEMBL

> <Article DOI>
10.1016/j.bmcl.2017.06.052

> <PMID>
28669445

> <Patent Number>
?

> <Authors>
McConkey, GA; Bedingfield, PTP; Burrell, DR; Chambers, NC; Cunningham, F; Prior, TJ; Fishwick, CWG; Boa, AN

> <Link to Ligand in BindingDB>
http://www.bindingdb.org/bind/chemsearch/marvin/MolStructure.jsp?monomerid=50268993

> <Link to Ligand-Target Pair in BindingDB>
http://www.bindingdb.org/jsp/dbsearch/PrimarySearch_ki.jsp?energyterm=kJ/mole&tag=r21&monomerid=50268993&enzyme=Dihydroorotate+dehydrogenase&column=ki&startPg=0&Increment=50&submit=Search

> <PubChem CID>
16102642

> <PubChem SID>
404915044

$$$$

  Mrv2115 07222212352D          

 33 36  0  0  0  0            999 V2000
   -0.7145   -3.7125    0.0000 C   0  0  0  0  0  0  0  0  0  0  0  0
   -0.7145   -2.8875    0.0000 C   0  0  0  0  0  0  0  0  0  0  0  0
   -1.4289   -2.4750    0.0000 C   0  0  0  0  0  0  0  0  0  0  0  0
   -1.4289   -1.6500    0.0000 C   0  0  0  0  0  0  0  0  0  0  0  0
   -0.7145   -1.2375    0.0000 C   0  0  0  0  0  0  0  0  0  0  0  0
   -0.7145   -0.4125    0.0000 Cl  0  0  0  0  0  0  0  0  0  0  0  0
    0.0000   -1.6500    0.0000 C   0  0  0  0  0  0  0  0  0  0  0  0
    0.7145   -1.2375    0.0000 N   0  0  0  0  0  0  0  0  0  0  0  0
    0.7145   -0.4125    0.0000 C   0  0  0  0  0  0  0  0  0  0  0  0
    1.4289    0.0000    0.0000 C   0  0  0  0  0  0  0  0  0  0  0  0
    1.4289    0.8250    0.0000 C   0  0  0  0  0  0  0  0  0  0  0  0
    2.1434    1.2375    0.0000 C   0  0  0  0  0  0  0  0  0  0  0  0
    0.7145    1.2375    0.0000 C   0  0  0  0  0  0  0  0  0  0  0  0
    2.1434   -0.4125    0.0000 C   0  0  0  0  0  0  0  0  0  0  0  0
    2.8579    0.0000    0.0000 C   0  0  0  0  0  0  0  0  0  0  0  0
    3.5724   -0.4125    0.0000 C   0  0  0  0  0  0  0  0  0  0  0  0
    4.2868   -0.0000    0.0000 C   0  0  0  0  0  0  0  0  0  0  0  0
    4.3731    0.8205    0.0000 C   0  0  0  0  0  0  0  0  0  0  0  0
    5.1800    0.9920    0.0000 N   0  0  0  0  0  0  0  0  0  0  0  0
    5.5156    1.7457    0.0000 C   0  0  0  0  0  0  0  0  0  0  0  0
    5.5925    0.2775    0.0000 C   0  0  0  0  0  0  0  0  0  0  0  0
    6.4130    0.1913    0.0000 C   0  0  0  0  0  0  0  0  0  0  0  0
    7.2335    0.1051    0.0000 C   0  0  0  0  0  0  0  0  0  0  0  0
    6.3268   -0.6292    0.0000 C   0  0  0  0  0  0  0  0  0  0  0  0
    6.4993    1.0118    0.0000 O   0  0  0  0  0  0  0  0  0  0  0  0
    5.0405   -0.3356    0.0000 N   0  0  0  0  0  0  0  0  0  0  0  0
    3.5724   -1.2375    0.0000 C   0  0  0  0  0  0  0  0  0  0  0  0
    4.2868   -1.6500    0.0000 F   0  0  0  0  0  0  0  0  0  0  0  0
    2.8579   -1.6500    0.0000 C   0  0  0  0  0  0  0  0  0  0  0  0
    2.1434   -1.2375    0.0000 C   0  0  0  0  0  0  0  0  0  0  0  0
    1.4289   -1.6500    0.0000 C   0  0  0  0  0  0  0  0  0  0  0  0
    1.4289   -2.4750    0.0000 O   0  0  0  0  0  0  0  0  0  0  0  0
    0.0000   -2.4750    0.0000 N   0  0  0  0  0  0  0  0  0  0  0  0
  1  2  1  0  0  0  0
  2  3  4  0  0  0  0
  3  4  4  0  0  0  0
  4  5  4  0  0  0  0
  5  6  1  0  0  0  0
  5  7  4  0  0  0  0
  7  8  1  0  0  0  0
  8  9  4  0  0  0  0
  9 10  4  0  0  0  0
 10 11  1  0  0  0  0
 11 12  1  0  0  0  0
 11 13  1  0  0  0  0
 10 14  4  0  0  0  0
 14 15  4  0  0  0  0
 15 16  4  0  0  0  0
 16 17  1  0  0  0  0
 17 18  4  0  0  0  0
 18 19  4  0  0  0  0
 19 20  1  0  0  0  0
 19 21  4  0  0  0  0
 21 22  1  0  0  0  0
 22 23  1  0  0  0  0
 22 24  1  0  0  0  0
 22 25  1  0  0  0  0
 21 26  4  0  0  0  0
 17 26  4  0  0  0  0
 16 27  4  0  0  0  0
 27 28  1  0  0  0  0
 27 29  4  0  0  0  0
 29 30  4  0  0  0  0
 14 30  4  0  0  0  0
 30 31  4  0  0  0  0
  8 31  4  0  0  0  0
 31 32  2  0  0  0  0
  7 33  4  0  0  0  0
  2 33  4  0  0  0  0
M  END
> <IC50(uM)>
0.0014

> <Outcome>
1.0

> <BindingDB ID>
1121389

> <BindingDB MonomerID>
530455

> <BindingDB Ligand Name>
2-(3-Chloro-6-methylpyridin-2-yl)-7-fluoro-6-(2-(2-hydroxypropan-2-yl)-1-methyl- 1H-imidazol-4-yl)-4-isopropylisoquinolin-1(2H)-one.::WO2022070068, Example 27

> <Curation/DataSource>
Curated from the literature by BindingDB

> <Article DOI>
?

> <PMID>
WO2022070068

> <Patent Number>
?

> <Authors>
Lindsey, D; Scott, K; Zhuming, Z

> <Link to Ligand in BindingDB>
http://www.bindingdb.org/bind/chemsearch/marvin/MolStructure.jsp?monomerid=530455

> <Link to Ligand-Target Pair in BindingDB>
http://www.bindingdb.org/jsp/dbsearch/PrimarySearch_ki.jsp?energyterm=kJ/mole&tag=r21&monomerid=530455&enzyme=Dihydroorotate+dehydrogenase&column=ki&startPg=0&Increment=50&submit=Search

> <PubChem CID>
?

> <PubChem SID>
?

$$$$

  Mrv2115 07222212352D          

 21 22  0  0  0  0            999 V2000
    2.7512    0.7634    0.0000 C   0  0  0  0  0  0  0  0  0  0  0  0
    2.7512   -0.0616    0.0000 C   0  0  0  0  0  0  0  0  0  0  0  0
    2.0367   -0.4741    0.0000 N   0  0  0  0  0  0  0  0  0  0  0  0
    2.0367   -1.2991    0.0000 C   0  0  0  0  0  0  0  0  0  0  0  0
    2.7041   -1.7840    0.0000 N   0  0  0  0  0  0  0  0  0  0  0  0
    2.4492   -2.5687    0.0000 N   0  0  0  0  0  0  0  0  0  0  0  0
    1.6242   -2.5687    0.0000 C   0  0  0  0  0  0  0  0  0  0  0  0
    1.1393   -3.2361    0.0000 N   0  0  0  0  0  0  0  0  0  0  0  0
    0.3188   -3.1499    0.0000 C   0  0  0  0  0  0  0  0  0  0  0  0
   -0.1661   -3.8173    0.0000 C   0  0  0  0  0  0  0  0  0  0  0  0
   -0.9866   -3.7311    0.0000 C   0  0  0  0  0  0  0  0  0  0  0  0
   -1.3222   -2.9774    0.0000 C   0  0  0  0  0  0  0  0  0  0  0  0
   -2.1426   -2.8911    0.0000 C   0  0  0  0  0  0  0  0  0  0  0  0
   -2.9631   -2.8049    0.0000 F   0  0  0  0  0  0  0  0  0  0  0  0
   -2.0564   -2.0707    0.0000 F   0  0  0  0  0  0  0  0  0  0  0  0
   -2.2289   -3.7116    0.0000 F   0  0  0  0  0  0  0  0  0  0  0  0
   -0.8372   -2.3099    0.0000 C   0  0  0  0  0  0  0  0  0  0  0  0
   -0.0168   -2.3962    0.0000 C   0  0  0  0  0  0  0  0  0  0  0  0
    1.3693   -1.7840    0.0000 C   0  0  0  0  0  0  0  0  0  0  0  0
    0.5846   -1.5291    0.0000 C   0  0  0  0  0  0  0  0  0  0  0  0
   -0.2000   -1.2742    0.0000 N   0  0  0  0  0  0  0  0  0  0  0  0
  1  2  1  0  0  0  0
  2  3  1  0  0  0  0
  3  4  1  0  0  0  0
  4  5  4  0  0  0  0
  5  6  4  0  0  0  0
  6  7  4  0  0  0  0
  7  8  1  0  0  0  0
  8  9  1  0  0  0  0
  9 10  4  0  0  0  0
 10 11  4  0  0  0  0
 11 12  4  0  0  0  0
 12 13  1  0  0  0  0
 13 14  1  0  0  0  0
 13 15  1  0  0  0  0
 13 16  1  0  0  0  0
 12 17  4  0  0  0  0
 17 18  4  0  0  0  0
  9 18  4  0  0  0  0
  7 19  4  0  0  0  0
  4 19  4  0  0  0  0
 19 20  1  0  0  0  0
 20 21  3  0  0  0  0
M  STY  1   1 DAT
M  SAL   1  1   6
M  SDT   1 MRV_IMPLICIT_H                                        
M  SDD   1     0.5304   -0.4125    DR    ALL  0       0  
M  SED   1 IMPL_H1
M  END
> <IC50(uM)>
50.0

> <Outcome>
0.0

> <BindingDB ID>
50786796

> <BindingDB MonomerID>
50066608

> <BindingDB Ligand Name>
5-Ethylamino-3-(4-trifluoromethyl-phenylamino)-1H-pyrazole-4-carbonitrile::CHEMBL334117

> <Curation/DataSource>
ChEMBL

> <Article DOI>
10.1021/jm981028c

> <PMID>
9719606

> <Patent Number>
?

> <Authors>
Papageorgiou, C; Albert, R; Floersheim, P; Lemaire, M; Bitch, F; Weber, HP; Andersen, E; Hungerford, V; Schreier, MH

> <Link to Ligand in BindingDB>
http://www.bindingdb.org/bind/chemsearch/marvin/MolStructure.jsp?monomerid=50066608

> <Link to Ligand-Target Pair in BindingDB>
http://www.bindingdb.org/jsp/dbsearch/PrimarySearch_ki.jsp?energyterm=kJ/mole&tag=r21&monomerid=50066608&enzyme=Dihydroorotate+dehydrogenase&column=ki&startPg=0&Increment=50&submit=Search

> <PubChem CID>
10565785

> <PubChem SID>
103961228

$$$$

  Mrv2115 07222212352D          

 23 25  0  0  0  0            999 V2000
    2.1434   -6.1875    0.0000 N   0  0  0  0  0  0  0  0  0  0  0  0
    2.1434   -5.3625    0.0000 C   0  0  0  0  0  0  0  0  0  0  0  0
    2.1434   -4.5375    0.0000 C   0  0  0  0  0  0  0  0  0  0  0  0
    1.4289   -4.1250    0.0000 C   0  0  0  0  0  0  0  0  0  0  0  0
    1.4289   -3.3000    0.0000 O   0  0  0  0  0  0  0  0  0  0  0  0
    0.7145   -4.5375    0.0000 N   0  0  0  0  0  0  0  0  0  0  0  0
    0.0000   -4.1250    0.0000 C   0  0  0  0  0  0  0  0  0  0  0  0
   -0.7145   -4.5375    0.0000 C   0  0  0  0  0  0  0  0  0  0  0  0
   -1.4289   -4.1250    0.0000 C   0  0  0  0  0  0  0  0  0  0  0  0
   -1.4289   -3.3000    0.0000 C   0  0  0  0  0  0  0  0  0  0  0  0
   -2.1434   -2.8875    0.0000 C   0  0  0  0  0  0  0  0  0  0  0  0
   -2.8579   -3.3000    0.0000 C   0  0  0  0  0  0  0  0  0  0  0  0
   -3.5724   -2.8875    0.0000 C   0  0  0  0  0  0  0  0  0  0  0  0
   -3.5724   -2.0625    0.0000 C   0  0  0  0  0  0  0  0  0  0  0  0
   -2.8579   -1.6500    0.0000 C   0  0  0  0  0  0  0  0  0  0  0  0
   -2.1434   -2.0625    0.0000 C   0  0  0  0  0  0  0  0  0  0  0  0
   -0.7145   -2.8875    0.0000 C   0  0  0  0  0  0  0  0  0  0  0  0
    0.0000   -3.3000    0.0000 C   0  0  0  0  0  0  0  0  0  0  0  0
    2.8579   -4.1250    0.0000 C   0  0  0  0  0  0  0  0  0  0  0  0
    2.8579   -3.3000    0.0000 O   0  0  0  0  0  0  0  0  0  0  0  0
    3.5724   -4.5375    0.0000 C   0  0  0  0  0  0  0  0  0  0  0  0
    4.3974   -4.5375    0.0000 C   0  0  0  0  0  0  0  0  0  0  0  0
    3.9849   -5.2520    0.0000 C   0  0  0  0  0  0  0  0  0  0  0  0
  1  2  3  0  0  0  0
  2  3  1  0  0  0  0
  3  4  1  0  0  0  0
  4  5  2  0  0  0  0
  4  6  1  0  0  0  0
  6  7  1  0  0  0  0
  7  8  4  0  0  0  0
  8  9  4  0  0  0  0
  9 10  4  0  0  0  0
 10 11  1  0  0  0  0
 11 12  4  0  0  0  0
 12 13  4  0  0  0  0
 13 14  4  0  0  0  0
 14 15  4  0  0  0  0
 15 16  4  0  0  0  0
 11 16  4  0  0  0  0
 10 17  4  0  0  0  0
 17 18  4  0  0  0  0
  7 18  4  0  0  0  0
  3 19  1  0  0  0  0
 19 20  2  0  0  0  0
 19 21  1  0  0  0  0
 21 22  1  0  0  0  0
 22 23  1  0  0  0  0
 21 23  1  0  0  0  0
M  END
> <IC50(uM)>
0.053

> <Outcome>
1.0

> <BindingDB ID>
52786

> <BindingDB MonomerID>
29026

> <BindingDB Ligand Name>
CHEMBL142996::cyanocyclopropylpropenamide, 11

> <Curation/DataSource>
Curated from the literature by BindingDB

> <Article DOI>
10.1021/jm800963t

> <PMID>
19351152

> <Patent Number>
?

> <Authors>
Davies, M; Heikkil&auml;, T; McConkey, GA; Fishwick, CW; Parsons, MR; Johnson, AP

> <Link to Ligand in BindingDB>
http://www.bindingdb.org/bind/chemsearch/marvin/MolStructure.jsp?monomerid=29026

> <Link to Ligand-Target Pair in BindingDB>
http://www.bindingdb.org/jsp/dbsearch/PrimarySearch_ki.jsp?energyterm=kJ/mole&tag=r21&monomerid=29026&enzyme=Dihydroorotate+dehydrogenase&column=ki&startPg=0&Increment=50&submit=Search

> <PubChem CID>
53761678

> <PubChem SID>
81054455

$$$$

  Mrv2115 07222212352D          

 32 36  0  0  0  0            999 V2000
    6.7861   -5.3057    0.0000 C   0  0  0  0  0  0  0  0  0  0  0  0
    6.5311   -4.5211    0.0000 N   0  0  0  0  0  0  0  0  0  0  0  0
    7.0832   -3.9080    0.0000 C   0  0  0  0  0  0  0  0  0  0  0  0
    5.7242   -4.3496    0.0000 C   0  0  0  0  0  0  0  0  0  0  0  0
    5.1721   -4.9627    0.0000 C   0  0  0  0  0  0  0  0  0  0  0  0
    4.3652   -4.7911    0.0000 C   0  0  0  0  0  0  0  0  0  0  0  0
    4.1102   -4.0065    0.0000 C   0  0  0  0  0  0  0  0  0  0  0  0
    4.6623   -3.3934    0.0000 C   0  0  0  0  0  0  0  0  0  0  0  0
    4.4073   -2.6088    0.0000 C   0  0  0  0  0  0  0  0  0  0  0  0
    3.6004   -2.4373    0.0000 C   0  0  0  0  0  0  0  0  0  0  0  0
    3.0483   -3.0504    0.0000 F   0  0  0  0  0  0  0  0  0  0  0  0
    3.3454   -1.6527    0.0000 C   0  0  0  0  0  0  0  0  0  0  0  0
    3.8974   -1.0396    0.0000 C   0  0  0  0  0  0  0  0  0  0  0  0
    3.6425   -0.2549    0.0000 N   0  0  0  0  0  0  0  0  0  0  0  0
    4.1274    0.4125    0.0000 N   0  0  0  0  0  0  0  0  0  0  0  0
    3.6425    1.0799    0.0000 N   0  0  0  0  0  0  0  0  0  0  0  0
    2.8579    0.8250    0.0000 C   0  0  0  0  0  0  0  0  0  0  0  0
    2.8579    0.0000    0.0000 C   0  0  0  0  0  0  0  0  0  0  0  0
    2.1434   -0.4125    0.0000 C   0  0  0  0  0  0  0  0  0  0  0  0
    2.1434   -1.2375    0.0000 O   0  0  0  0  0  0  0  0  0  0  0  0
    1.4289   -0.0000    0.0000 C   0  0  0  0  0  0  0  0  0  0  0  0
    0.7145   -0.4125    0.0000 C   0  0  0  0  0  0  0  0  0  0  0  0
   -0.0000    0.0000    0.0000 C   0  0  0  0  0  0  0  0  0  0  0  0
    0.0000    0.8250    0.0000 C   0  0  0  0  0  0  0  0  0  0  0  0
    0.7145    1.2375    0.0000 C   0  0  0  0  0  0  0  0  0  0  0  0
    1.4289    0.8250    0.0000 C   0  0  0  0  0  0  0  0  0  0  0  0
    2.1434    1.2375    0.0000 C   0  0  0  0  0  0  0  0  0  0  0  0
    2.1434    2.0625    0.0000 O   0  0  0  0  0  0  0  0  0  0  0  0
    4.7044   -1.2111    0.0000 C   0  0  0  0  0  0  0  0  0  0  0  0
    4.9594   -1.9957    0.0000 C   0  0  0  0  0  0  0  0  0  0  0  0
    5.7663   -2.1672    0.0000 F   0  0  0  0  0  0  0  0  0  0  0  0
    5.4692   -3.5650    0.0000 C   0  0  0  0  0  0  0  0  0  0  0  0
  1  2  1  0  0  0  0
  2  3  1  0  0  0  0
  2  4  1  0  0  0  0
  4  5  4  0  0  0  0
  5  6  4  0  0  0  0
  6  7  4  0  0  0  0
  7  8  4  0  0  0  0
  8  9  1  0  0  0  0
  9 10  4  0  0  0  0
 10 11  1  0  0  0  0
 10 12  4  0  0  0  0
 12 13  4  0  0  0  0
 13 14  1  0  0  0  0
 14 15  4  0  0  0  0
 15 16  4  0  0  0  0
 16 17  4  0  0  0  0
 17 18  4  0  0  0  0
 14 18  4  0  0  0  0
 18 19  1  0  0  0  0
 19 20  2  0  0  0  0
 19 21  1  0  0  0  0
 21 22  4  0  0  0  0
 22 23  4  0  0  0  0
 23 24  4  0  0  0  0
 24 25  4  0  0  0  0
 25 26  4  0  0  0  0
 21 26  4  0  0  0  0
 26 27  1  0  0  0  0
 17 27  1  0  0  0  0
 27 28  2  0  0  0  0
 13 29  4  0  0  0  0
 29 30  4  0  0  0  0
  9 30  4  0  0  0  0
 30 31  1  0  0  0  0
  8 32  4  0  0  0  0
  4 32  4  0  0  0  0
M  END
> <IC50(uM)>
5.0E-4

> <Outcome>
1.0

> <BindingDB ID>
51338205

> <BindingDB MonomerID>
50541679

> <BindingDB Ligand Name>
CHEMBL4647465

> <Curation/DataSource>
ChEMBL

> <Article DOI>
10.1021/acs.jmedchem.0c00512

> <PMID>
32496056

> <Patent Number>
?

> <Authors>
Zuo, Z; Liu, X; Qian, X; Zeng, T; Sang, N; Liu, H; Zhou, Y; Tao, L; Zhou, X; Su, N; Yu, Y; Chen, Q; Luo, Y; Zhao, Y

> <Link to Ligand in BindingDB>
http://www.bindingdb.org/bind/chemsearch/marvin/MolStructure.jsp?monomerid=50541679

> <Link to Ligand-Target Pair in BindingDB>
http://www.bindingdb.org/jsp/dbsearch/PrimarySearch_ki.jsp?energyterm=kJ/mole&tag=r21&monomerid=50541679&enzyme=Dihydroorotate+dehydrogenase&column=ki&startPg=0&Increment=50&submit=Search

> <PubChem CID>
154700496

> <PubChem SID>
442143242

$$$$

  Mrv2115 07222212352D          

 33 36  0  0  0  0            999 V2000
    0.7145   -2.8875    0.0000 C   0  0  0  0  0  0  0  0  0  0  0  0
    0.0000   -2.4750    0.0000 C   0  0  0  0  0  0  0  0  0  0  0  0
   -0.7145   -2.8875    0.0000 C   0  0  0  0  0  0  0  0  0  0  0  0
   -1.4289   -2.4750    0.0000 C   0  0  0  0  0  0  0  0  0  0  0  0
   -1.4289   -1.6500    0.0000 N   0  0  0  0  0  0  0  0  0  0  0  0
   -0.7145   -1.2375    0.0000 C   0  0  0  0  0  0  0  0  0  0  0  0
   -0.7145   -0.4125    0.0000 Cl  0  0  0  0  0  0  0  0  0  0  0  0
    0.0000   -1.6500    0.0000 C   0  0  0  0  0  0  0  0  0  0  0  0
    0.7145   -1.2375    0.0000 N   0  0  0  0  0  0  0  0  0  0  0  0
    0.7145   -0.4125    0.0000 C   0  0  0  0  0  0  0  0  0  0  0  0
    1.4289    0.0000    0.0000 C   0  0  0  0  0  0  0  0  0  0  0  0
    1.4289    0.8250    0.0000 C   0  0  0  0  0  0  0  0  0  0  0  0
    2.1434    1.2375    0.0000 C   0  0  0  0  0  0  0  0  0  0  0  0
    0.7145    1.2375    0.0000 C   0  0  0  0  0  0  0  0  0  0  0  0
    2.1434   -0.4125    0.0000 C   0  0  0  0  0  0  0  0  0  0  0  0
    2.8579    0.0000    0.0000 C   0  0  0  0  0  0  0  0  0  0  0  0
    3.5724   -0.4125    0.0000 C   0  0  0  0  0  0  0  0  0  0  0  0
    4.2868   -0.0000    0.0000 C   0  0  0  0  0  0  0  0  0  0  0  0
    4.3731    0.8205    0.0000 C   0  0  0  0  0  0  0  0  0  0  0  0
    5.1800    0.9920    0.0000 N   0  0  0  0  0  0  0  0  0  0  0  0
    5.5156    1.7457    0.0000 C   0  0  0  0  0  0  0  0  0  0  0  0
    5.5925    0.2775    0.0000 C   0  0  0  0  0  0  0  0  0  0  0  0
    6.4130    0.1913    0.0000 C   0  0  0  0  0  0  0  0  0  0  0  0
    7.2335    0.1051    0.0000 C   0  0  0  0  0  0  0  0  0  0  0  0
    6.3268   -0.6292    0.0000 C   0  0  0  0  0  0  0  0  0  0  0  0
    6.4993    1.0118    0.0000 O   0  0  0  0  0  0  0  0  0  0  0  0
    5.0405   -0.3356    0.0000 N   0  0  0  0  0  0  0  0  0  0  0  0
    3.5724   -1.2375    0.0000 C   0  0  0  0  0  0  0  0  0  0  0  0
    4.2868   -1.6500    0.0000 F   0  0  0  0  0  0  0  0  0  0  0  0
    2.8579   -1.6500    0.0000 C   0  0  0  0  0  0  0  0  0  0  0  0
    2.1434   -1.2375    0.0000 C   0  0  0  0  0  0  0  0  0  0  0  0
    1.4289   -1.6500    0.0000 C   0  0  0  0  0  0  0  0  0  0  0  0
    1.4289   -2.4750    0.0000 O   0  0  0  0  0  0  0  0  0  0  0  0
  1  2  1  0  0  0  0
  2  3  4  0  0  0  0
  3  4  4  0  0  0  0
  4  5  4  0  0  0  0
  5  6  4  0  0  0  0
  6  7  1  0  0  0  0
  6  8  4  0  0  0  0
  2  8  4  0  0  0  0
  8  9  1  0  0  0  0
  9 10  4  0  0  0  0
 10 11  4  0  0  0  0
 11 12  1  0  0  0  0
 12 13  1  0  0  0  0
 12 14  1  0  0  0  0
 11 15  4  0  0  0  0
 15 16  4  0  0  0  0
 16 17  4  0  0  0  0
 17 18  1  0  0  0  0
 18 19  4  0  0  0  0
 19 20  4  0  0  0  0
 20 21  1  0  0  0  0
 20 22  4  0  0  0  0
 22 23  1  0  0  0  0
 23 24  1  0  0  0  0
 23 25  1  0  0  0  0
 23 26  1  0  0  0  0
 22 27  4  0  0  0  0
 18 27  4  0  0  0  0
 17 28  4  0  0  0  0
 28 29  1  0  0  0  0
 28 30  4  0  0  0  0
 30 31  4  0  0  0  0
 15 31  4  0  0  0  0
 31 32  4  0  0  0  0
  9 32  4  0  0  0  0
 32 33  2  0  0  0  0
M  END
> <IC50(uM)>
0.002

> <Outcome>
1.0

> <BindingDB ID>
1121380

> <BindingDB MonomerID>
530446

> <BindingDB Ligand Name>
2-(2-Chloro-4-methylpyridin-3-yl)-7-fluoro-6-(2-(2-hydroxypropan-2-yl)-1-methyl- 1H-imidazol-4-yl)-4-isopropylisoquinolin-1(2H)-one.::WO2022070068, Example 18

> <Curation/DataSource>
Curated from the literature by BindingDB

> <Article DOI>
?

> <PMID>
WO2022070068

> <Patent Number>
?

> <Authors>
Lindsey, D; Scott, K; Zhuming, Z

> <Link to Ligand in BindingDB>
http://www.bindingdb.org/bind/chemsearch/marvin/MolStructure.jsp?monomerid=530446

> <Link to Ligand-Target Pair in BindingDB>
http://www.bindingdb.org/jsp/dbsearch/PrimarySearch_ki.jsp?energyterm=kJ/mole&tag=r21&monomerid=530446&enzyme=Dihydroorotate+dehydrogenase&column=ki&startPg=0&Increment=50&submit=Search

> <PubChem CID>
?

> <PubChem SID>
?

$$$$

  Mrv2115 07222212352D          

 30 32  0  0  0  0            999 V2000
   -5.7158   -5.7750    0.0000 C   0  0  0  0  0  0  0  0  0  0  0  0
   -5.0013   -5.3625    0.0000 C   0  0  0  0  0  0  0  0  0  0  0  0
   -4.2868   -5.7750    0.0000 C   0  0  0  0  0  0  0  0  0  0  0  0
   -4.2868   -6.6000    0.0000 O   0  0  0  0  0  0  0  0  0  0  0  0
   -3.5724   -5.3625    0.0000 C   0  0  0  0  0  0  0  0  0  0  0  0
   -3.5724   -4.5375    0.0000 C   0  0  0  0  0  0  0  0  0  0  0  0
   -3.5724   -3.7125    0.0000 N   0  0  0  0  0  0  0  0  0  0  0  0
   -2.8579   -5.7750    0.0000 C   0  0  0  0  0  0  0  0  0  0  0  0
   -2.8579   -6.6000    0.0000 O   0  0  0  0  0  0  0  0  0  0  0  0
   -2.1434   -5.3625    0.0000 N   0  0  0  0  0  0  0  0  0  0  0  0
   -1.4289   -5.7750    0.0000 C   0  0  0  0  0  0  0  0  0  0  0  0
   -0.7145   -5.3625    0.0000 C   0  0  0  0  0  0  0  0  0  0  0  0
    0.0000   -5.7750    0.0000 C   0  0  0  0  0  0  0  0  0  0  0  0
    0.0000   -6.6000    0.0000 C   0  0  0  0  0  0  0  0  0  0  0  0
    0.7145   -7.0125    0.0000 C   0  0  0  0  0  0  0  0  0  0  0  0
    0.7145   -7.8375    0.0000 C   0  0  0  0  0  0  0  0  0  0  0  0
    1.4289   -8.2500    0.0000 C   0  0  0  0  0  0  0  0  0  0  0  0
    2.1434   -7.8375    0.0000 C   0  0  0  0  0  0  0  0  0  0  0  0
    2.1434   -7.0125    0.0000 C   0  0  0  0  0  0  0  0  0  0  0  0
    1.4289   -6.6000    0.0000 C   0  0  0  0  0  0  0  0  0  0  0  0
    2.8579   -6.6000    0.0000 O   0  0  0  0  0  0  0  0  0  0  0  0
    3.5724   -7.0125    0.0000 C   0  0  0  0  0  0  0  0  0  0  0  0
    3.5724   -7.8375    0.0000 C   0  0  0  0  0  0  0  0  0  0  0  0
    2.8579   -8.2500    0.0000 O   0  0  0  0  0  0  0  0  0  0  0  0
   -0.7145   -7.0125    0.0000 C   0  0  0  0  0  0  0  0  0  0  0  0
   -0.7145   -7.8375    0.0000 C   0  0  0  0  0  0  0  0  0  0  0  0
   -1.4289   -8.2500    0.0000 O   0  0  0  0  0  0  0  0  0  0  0  0
    0.0000   -8.2500    0.0000 O   0  0  0  0  0  0  0  0  0  0  0  0
    0.0000   -9.0750    0.0000 C   0  0  0  0  0  0  0  0  0  0  0  0
   -1.4289   -6.6000    0.0000 C   0  0  0  0  0  0  0  0  0  0  0  0
  1  2  1  0  0  0  0
  2  3  1  0  0  0  0
  3  4  2  0  0  0  0
  3  5  1  0  0  0  0
  5  6  1  0  0  0  0
  6  7  3  0  0  0  0
  5  8  1  0  0  0  0
  8  9  2  0  0  0  0
  8 10  1  0  0  0  0
 10 11  1  0  0  0  0
 11 12  4  0  0  0  0
 12 13  4  0  0  0  0
 13 14  4  0  0  0  0
 14 15  1  0  0  0  0
 15 16  4  0  0  0  0
 16 17  4  0  0  0  0
 17 18  4  0  0  0  0
 18 19  4  0  0  0  0
 19 20  4  0  0  0  0
 15 20  4  0  0  0  0
 19 21  1  0  0  0  0
 21 22  1  0  0  0  0
 22 23  1  0  0  0  0
 23 24  1  0  0  0  0
 18 24  1  0  0  0  0
 14 25  4  0  0  0  0
 25 26  1  0  0  0  0
 26 27  2  0  0  0  0
 26 28  1  0  0  0  0
 28 29  1  0  0  0  0
 25 30  4  0  0  0  0
 11 30  4  0  0  0  0
M  END
> <IC50(uM)>
0.066

> <Outcome>
1.0

> <BindingDB ID>
50707386

> <BindingDB MonomerID>
50359707

> <BindingDB Ligand Name>
CHEMBL1929451

> <Curation/DataSource>
ChEMBL

> <Article DOI>
10.1016/j.bmcl.2011.10.052

> <PMID>
22078215

> <Patent Number>
?

> <Authors>
Erra, M; Moreno, I; Sanahuja, J; Andres, M; Reinoso, RF; Lozoya, E; Pizcueta, P; Godessart, N; Castro-Palomino, JC

> <Link to Ligand in BindingDB>
http://www.bindingdb.org/bind/chemsearch/marvin/MolStructure.jsp?monomerid=50359707

> <Link to Ligand-Target Pair in BindingDB>
http://www.bindingdb.org/jsp/dbsearch/PrimarySearch_ki.jsp?energyterm=kJ/mole&tag=r21&monomerid=50359707&enzyme=Dihydroorotate+dehydrogenase&column=ki&startPg=0&Increment=50&submit=Search

> <PubChem CID>
91930455

> <PubChem SID>
136963731

$$$$

  Mrv2115 07222212352D          

 36 39  0  0  0  0            999 V2000
    2.3167   -5.1890    0.0000 C   0  0  0  0  0  0  0  0  0  0  0  0
    1.7036   -5.7410    0.0000 C   0  0  0  0  0  0  0  0  0  0  0  0
    0.9190   -5.4861    0.0000 C   0  0  0  0  0  0  0  0  0  0  0  0
    0.6640   -4.7015    0.0000 N   0  0  0  0  0  0  0  0  0  0  0  0
   -0.1610   -4.7015    0.0000 N   0  0  0  0  0  0  0  0  0  0  0  0
   -0.6459   -4.0340    0.0000 C   0  0  0  0  0  0  0  0  0  0  0  0
   -1.4664   -4.1203    0.0000 C   0  0  0  0  0  0  0  0  0  0  0  0
   -1.9513   -3.4528    0.0000 C   0  0  0  0  0  0  0  0  0  0  0  0
   -2.7718   -3.5391    0.0000 O   0  0  0  0  0  0  0  0  0  0  0  0
   -3.1073   -4.2927    0.0000 C   0  0  0  0  0  0  0  0  0  0  0  0
   -2.6224   -4.9602    0.0000 C   0  0  0  0  0  0  0  0  0  0  0  0
   -3.9278   -4.3790    0.0000 C   0  0  0  0  0  0  0  0  0  0  0  0
   -4.0140   -3.5585    0.0000 F   0  0  0  0  0  0  0  0  0  0  0  0
   -3.8416   -5.1995    0.0000 F   0  0  0  0  0  0  0  0  0  0  0  0
   -4.7483   -4.4652    0.0000 F   0  0  0  0  0  0  0  0  0  0  0  0
   -1.6157   -2.6992    0.0000 C   0  0  0  0  0  0  0  0  0  0  0  0
   -2.1006   -2.0317    0.0000 C   0  0  0  0  0  0  0  0  0  0  0  0
   -1.7651   -1.2780    0.0000 O   0  0  0  0  0  0  0  0  0  0  0  0
   -2.9211   -2.1180    0.0000 N   0  0  0  0  0  0  0  0  0  0  0  0
   -3.4060   -1.4505    0.0000 C   0  0  0  0  0  0  0  0  0  0  0  0
   -4.2265   -1.5367    0.0000 C   0  0  0  0  0  0  0  0  0  0  0  0
   -4.5621   -2.2904    0.0000 C   0  0  0  0  0  0  0  0  0  0  0  0
   -4.7114   -0.8693    0.0000 C   0  0  0  0  0  0  0  0  0  0  0  0
   -4.3759   -0.1156    0.0000 C   0  0  0  0  0  0  0  0  0  0  0  0
   -3.5554   -0.0294    0.0000 C   0  0  0  0  0  0  0  0  0  0  0  0
   -3.0705   -0.6968    0.0000 C   0  0  0  0  0  0  0  0  0  0  0  0
   -2.2500   -0.6106    0.0000 F   0  0  0  0  0  0  0  0  0  0  0  0
   -0.7952   -2.6129    0.0000 C   0  0  0  0  0  0  0  0  0  0  0  0
   -0.3103   -3.2804    0.0000 C   0  0  0  0  0  0  0  0  0  0  0  0
    0.5102   -3.1941    0.0000 F   0  0  0  0  0  0  0  0  0  0  0  0
   -0.4159   -5.4861    0.0000 C   0  0  0  0  0  0  0  0  0  0  0  0
   -1.2005   -5.7410    0.0000 O   0  0  0  0  0  0  0  0  0  0  0  0
    0.2515   -5.9710    0.0000 N   0  0  0  0  0  0  0  0  0  0  0  0
    0.2515   -6.7960    0.0000 C   0  0  0  0  0  0  0  0  0  0  0  0
    0.6640   -7.5105    0.0000 C   0  0  0  0  0  0  0  0  0  0  0  0
   -0.1610   -7.5105    0.0000 C   0  0  0  0  0  0  0  0  0  0  0  0
  1  2  1  0  0  0  0
  2  3  1  0  0  0  0
  3  4  4  0  0  0  0
  4  5  4  0  0  0  0
  5  6  1  0  0  0  0
  6  7  4  0  0  0  0
  7  8  4  0  0  0  0
  8  9  1  0  0  0  0
  9 10  1  0  0  0  0
 10 11  1  0  0  0  0
 10 12  1  0  0  0  0
 12 13  1  0  0  0  0
 12 14  1  0  0  0  0
 12 15  1  0  0  0  0
  8 16  4  0  0  0  0
 16 17  1  0  0  0  0
 17 18  2  0  0  0  0
 17 19  1  0  0  0  0
 19 20  1  0  0  0  0
 20 21  4  0  0  0  0
 21 22  1  0  0  0  0
 21 23  4  0  0  0  0
 23 24  4  0  0  0  0
 24 25  4  0  0  0  0
 25 26  4  0  0  0  0
 20 26  4  0  0  0  0
 26 27  1  0  0  0  0
 16 28  4  0  0  0  0
 28 29  4  0  0  0  0
  6 29  4  0  0  0  0
 29 30  1  0  0  0  0
  5 31  4  0  0  0  0
 31 32  2  0  0  0  0
 31 33  4  0  0  0  0
  3 33  4  0  0  0  0
 33 34  1  0  0  0  0
 34 35  1  0  0  0  0
 35 36  1  0  0  0  0
 34 36  1  0  0  0  0
M  END
> <IC50(uM)>
0.15

> <Outcome>
1.0

> <BindingDB ID>
972528; 1098682

> <BindingDB MonomerID>
470403

> <BindingDB Ligand Name>
4-(4-cyclopropyl-3-ethyl-5-oxo-4,5-dihydro-1H-1,2,4-triazol-1-yl)-5-fluoro-N-(2-fluoro-6-methyl-phenyl)-2-{[(2S)-1,1,1-trifluoropropan-2-yl]oxy}benzamide::US10815215, Example 62; 4-(4-cyclopropyl-3-ethyl-5-oxo-4,5-dihydro-1H-1,2,4-triazol-1-yl)-5-fluoro-N-(2-fluoro-6-methyl-phenyl)-2-{[(2S)-1,1,1-trifluoropropan-2-yl]oxy}benzamide::US10815215, Example 62::US11130745, Example 62

> <Curation/DataSource>
US Patent

> <Article DOI>
?

> <PMID>
?

> <Patent Number>
US10815215; US11130745

> <Authors>
Gradl, SN; Nguyen, D; Eis, K; Gunther, J; Stellfeld, T; Janzer, A; Christian, S; Muller, T; Sheikh, SE; Zhou, HJ; Zhao, C; Sykes, DB; Ferrara, SJ; Liu, K; Krober, M; Merz, C; Niehues, M; Schafer, M; Zimmermann, K; Nising, CF; Gradl, SN; Nguyen, D; Eis, K; Gunther, J; Stellfeld, T; Janzer, A; Christian, S; Muller, T; Sheikh, SE; Sykes, DB; Ferrara, SJ; Krober, M; Merz, C; Niehues, M; Schafer, M; Zimmermann, K; Nising, CF

> <Link to Ligand in BindingDB>
http://www.bindingdb.org/bind/chemsearch/marvin/MolStructure.jsp?monomerid=470403

> <Link to Ligand-Target Pair in BindingDB>
http://www.bindingdb.org/jsp/dbsearch/PrimarySearch_ki.jsp?energyterm=kJ/mole&tag=r21&monomerid=470403&enzyme=Dihydroorotate+dehydrogenase&column=ki&startPg=0&Increment=50&submit=Search

> <PubChem CID>
134470371

> <PubChem SID>
441609580

$$$$

  Mrv2115 07222212352D          

 23 25  0  0  0  0            999 V2000
    0.7145   -2.8875    0.0000 C   0  0  0  0  0  0  0  0  0  0  0  0
    0.0000   -2.4750    0.0000 N   0  0  0  0  0  0  0  0  0  0  0  0
    0.0000   -1.6500    0.0000 C   0  0  0  0  0  0  0  0  0  0  0  0
   -0.7145   -1.2375    0.0000 O   0  0  0  0  0  0  0  0  0  0  0  0
    0.7145   -1.2375    0.0000 C   0  0  0  0  0  0  0  0  0  0  0  0
    0.7145   -0.4125    0.0000 C   0  0  0  0  0  0  0  0  0  0  0  0
    1.4289    0.0000    0.0000 C   0  0  0  0  0  0  0  0  0  0  0  0
    2.1434   -0.4125    0.0000 C   0  0  0  0  0  0  0  0  0  0  0  0
    2.8579    0.0000    0.0000 C   0  0  0  0  0  0  0  0  0  0  0  0
    3.5724   -0.4125    0.0000 C   0  0  0  0  0  0  0  0  0  0  0  0
    3.5724   -1.2375    0.0000 C   0  0  0  0  0  0  0  0  0  0  0  0
    2.8579   -1.6500    0.0000 C   0  0  0  0  0  0  0  0  0  0  0  0
    2.1434   -1.2375    0.0000 C   0  0  0  0  0  0  0  0  0  0  0  0
    1.4289   -1.6500    0.0000 C   0  0  0  0  0  0  0  0  0  0  0  0
   -0.7145   -2.8875    0.0000 C   0  0  0  0  0  0  0  0  0  0  0  0
   -1.4289   -2.4750    0.0000 C   0  0  0  0  0  0  0  0  0  0  0  0
   -2.1434   -2.8875    0.0000 C   0  0  0  0  0  0  0  0  0  0  0  0
   -2.1434   -3.7125    0.0000 C   0  0  0  0  0  0  0  0  0  0  0  0
   -1.4289   -4.1250    0.0000 C   0  0  0  0  0  0  0  0  0  0  0  0
   -0.7145   -3.7125    0.0000 C   0  0  0  0  0  0  0  0  0  0  0  0
    0.0000   -4.1250    0.0000 C   0  0  0  0  0  0  0  0  0  0  0  0
    0.7145   -3.7125    0.0000 O   0  0  0  0  0  0  0  0  0  0  0  0
    0.0000   -4.9500    0.0000 O   0  0  0  0  0  0  0  0  0  0  0  0
  1  2  1  0  0  0  0
  2  3  1  0  0  0  0
  3  4  2  0  0  0  0
  3  5  1  0  0  0  0
  5  6  4  0  0  0  0
  6  7  4  0  0  0  0
  7  8  4  0  0  0  0
  8  9  4  0  0  0  0
  9 10  4  0  0  0  0
 10 11  4  0  0  0  0
 11 12  4  0  0  0  0
 12 13  4  0  0  0  0
  8 13  4  0  0  0  0
 13 14  4  0  0  0  0
  5 14  4  0  0  0  0
  2 15  1  0  0  0  0
 15 16  4  0  0  0  0
 16 17  4  0  0  0  0
 17 18  4  0  0  0  0
 18 19  4  0  0  0  0
 19 20  4  0  0  0  0
 15 20  4  0  0  0  0
 20 21  1  0  0  0  0
 21 22  2  0  0  0  0
 21 23  1  0  0  0  0
M  END
> <IC50(uM)>
200.0

> <Outcome>
0.0

> <BindingDB ID>
29202

> <BindingDB MonomerID>
16097

> <BindingDB Ligand Name>
2-[methyl(naphthalen-2-ylcarbonyl)amino]benzoic acid::2-[methyl(naphthalene-2-)amido]benzoic acid::Inhibitor 5

> <Curation/DataSource>
Curated from the literature by BindingDB

> <Article DOI>
10.1016/j.bmcl.2005.09.045

> <PMID>
16236496

> <Patent Number>
?

> <Authors>
Heikkila, T; Thirumalairajan, S; Davies, M; Parsons, MR; McConkey, AG; Fishwick, CW; Johnson, AP

> <Link to Ligand in BindingDB>
http://www.bindingdb.org/bind/chemsearch/marvin/MolStructure.jsp?monomerid=16097

> <Link to Ligand-Target Pair in BindingDB>
http://www.bindingdb.org/jsp/dbsearch/PrimarySearch_ki.jsp?energyterm=kJ/mole&tag=r21&monomerid=16097&enzyme=Dihydroorotate+dehydrogenase&column=ki&startPg=0&Increment=50&submit=Search

> <PubChem CID>
16777509

> <PubChem SID>
46516358

$$$$

  Mrv2115 07222212352D          

 26 28  0  0  0  0            999 V2000
   -1.4087    0.0165    0.0000 C   0  0  0  0  0  0  0  0  0  0  0  0
   -0.9962   -0.6979    0.0000 C   0  0  0  0  0  0  0  0  0  0  0  0
   -0.1712   -0.6979    0.0000 C   0  0  0  0  0  0  0  0  0  0  0  0
   -0.1712   -1.5229    0.0000 F   0  0  0  0  0  0  0  0  0  0  0  0
   -0.1712    0.1271    0.0000 F   0  0  0  0  0  0  0  0  0  0  0  0
    0.6538   -0.6979    0.0000 C   0  0  0  0  0  0  0  0  0  0  0  0
    1.1387   -0.0305    0.0000 N   0  0  0  0  0  0  0  0  0  0  0  0
    1.9233   -0.2854    0.0000 C   0  0  0  0  0  0  0  0  0  0  0  0
    2.6378    0.1271    0.0000 N   0  0  0  0  0  0  0  0  0  0  0  0
    3.3523   -0.2854    0.0000 C   0  0  0  0  0  0  0  0  0  0  0  0
    4.0668    0.1271    0.0000 C   0  0  0  0  0  0  0  0  0  0  0  0
    3.3523   -1.1104    0.0000 C   0  0  0  0  0  0  0  0  0  0  0  0
    2.6378   -1.5229    0.0000 C   0  0  0  0  0  0  0  0  0  0  0  0
    2.6378   -2.3479    0.0000 N   0  0  0  0  0  0  0  0  0  0  0  0
    1.9233   -2.7604    0.0000 C   0  0  0  0  0  0  0  0  0  0  0  0
    1.9233   -3.5854    0.0000 C   0  0  0  0  0  0  0  0  0  0  0  0
    1.2089   -3.9979    0.0000 C   0  0  0  0  0  0  0  0  0  0  0  0
    0.4944   -3.5854    0.0000 C   0  0  0  0  0  0  0  0  0  0  0  0
   -0.2201   -3.9979    0.0000 C   0  0  0  0  0  0  0  0  0  0  0  0
   -0.9345   -4.4104    0.0000 F   0  0  0  0  0  0  0  0  0  0  0  0
   -0.6326   -3.2835    0.0000 F   0  0  0  0  0  0  0  0  0  0  0  0
    0.1924   -4.7124    0.0000 F   0  0  0  0  0  0  0  0  0  0  0  0
    0.4944   -2.7604    0.0000 C   0  0  0  0  0  0  0  0  0  0  0  0
    1.2089   -2.3479    0.0000 C   0  0  0  0  0  0  0  0  0  0  0  0
    1.9233   -1.1104    0.0000 N   0  0  0  0  0  0  0  0  0  0  0  0
    1.1387   -1.3654    0.0000 N   0  0  0  0  0  0  0  0  0  0  0  0
  1  2  1  0  0  0  0
  2  3  1  0  0  0  0
  3  4  1  0  0  0  0
  3  5  1  0  0  0  0
  3  6  1  0  0  0  0
  6  7  4  0  0  0  0
  7  8  4  0  0  0  0
  8  9  4  0  0  0  0
  9 10  4  0  0  0  0
 10 11  1  0  0  0  0
 10 12  4  0  0  0  0
 12 13  4  0  0  0  0
 13 14  1  0  0  0  0
 14 15  1  0  0  0  0
 15 16  4  0  0  0  0
 16 17  4  0  0  0  0
 17 18  4  0  0  0  0
 18 19  1  0  0  0  0
 19 20  1  0  0  0  0
 19 21  1  0  0  0  0
 19 22  1  0  0  0  0
 18 23  4  0  0  0  0
 23 24  4  0  0  0  0
 15 24  4  0  0  0  0
 13 25  4  0  0  0  0
  8 25  4  0  0  0  0
 25 26  4  0  0  0  0
  6 26  4  0  0  0  0
M  END
> <IC50(uM)>
100.0

> <Outcome>
0.0

> <BindingDB ID>
50720157

> <BindingDB MonomerID>
50365227

> <BindingDB Ligand Name>
CHEMBL1956288::US9238653, Table 5, Compound 46

> <Curation/DataSource>
ChEMBL

> <Article DOI>
10.1021/jm200592f

> <PMID>
21696174

> <Patent Number>
?

> <Authors>
Coteron, JM; Marco, M; Esquivias, J; Deng, X; White, KL; White, J; Koltun, M; El Mazouni, F; Kokkonda, S; Katneni, K; Bhamidipati, R; Shackleford, DM; Angulo-Barturen, I; Ferrer, SB; Jimenez-Diaz, MB; Gamo, FJ; Goldsmith, EJ; Charman, WN; Bathurst, I; Floyd, D; Matthews, D; Burrows, JN; Rathod, PK; Charman, SA; Phillips, MA

> <Link to Ligand in BindingDB>
http://www.bindingdb.org/bind/chemsearch/marvin/MolStructure.jsp?monomerid=50365227

> <Link to Ligand-Target Pair in BindingDB>
http://www.bindingdb.org/jsp/dbsearch/PrimarySearch_ki.jsp?energyterm=kJ/mole&tag=r21&monomerid=50365227&enzyme=Dihydroorotate+dehydrogenase&column=ki&startPg=0&Increment=50&submit=Search

> <PubChem CID>
51347542

> <PubChem SID>
136969289

$$$$

  Mrv2115 07222212352D          

 39 42  0  0  0  0            999 V2000
    1.5737   -5.8917    0.0000 C   0  0  0  0  0  0  0  0  0  0  0  0
    1.7452   -5.0847    0.0000 C   0  0  0  0  0  0  0  0  0  0  0  0
    2.5298   -4.8298    0.0000 N   0  0  0  0  0  0  0  0  0  0  0  0
    3.1973   -5.3147    0.0000 C   0  0  0  0  0  0  0  0  0  0  0  0
    3.1973   -6.1397    0.0000 C   0  0  0  0  0  0  0  0  0  0  0  0
    2.4828   -6.5522    0.0000 O   0  0  0  0  0  0  0  0  0  0  0  0
    3.9117   -6.5522    0.0000 N   0  0  0  0  0  0  0  0  0  0  0  0
    3.9117   -7.3772    0.0000 C   0  0  0  0  0  0  0  0  0  0  0  0
    4.3242   -8.0917    0.0000 C   0  0  0  0  0  0  0  0  0  0  0  0
    3.4992   -8.0917    0.0000 C   0  0  0  0  0  0  0  0  0  0  0  0
    3.8647   -4.8298    0.0000 N   0  0  0  0  0  0  0  0  0  0  0  0
    3.6098   -4.0452    0.0000 N   0  0  0  0  0  0  0  0  0  0  0  0
    4.0947   -3.3777    0.0000 C   0  0  0  0  0  0  0  0  0  0  0  0
    3.7591   -2.6241    0.0000 C   0  0  0  0  0  0  0  0  0  0  0  0
    4.2441   -1.9566    0.0000 C   0  0  0  0  0  0  0  0  0  0  0  0
    3.9085   -1.2029    0.0000 O   0  0  0  0  0  0  0  0  0  0  0  0
    3.0880   -1.1167    0.0000 C   0  0  0  0  0  0  0  0  0  0  0  0
    2.6031   -1.7841    0.0000 C   0  0  0  0  0  0  0  0  0  0  0  0
    2.7525   -0.3630    0.0000 C   0  0  0  0  0  0  0  0  0  0  0  0
    3.5061   -0.0275    0.0000 F   0  0  0  0  0  0  0  0  0  0  0  0
    1.9988   -0.6986    0.0000 F   0  0  0  0  0  0  0  0  0  0  0  0
    2.4169    0.3906    0.0000 F   0  0  0  0  0  0  0  0  0  0  0  0
    5.0645   -2.0429    0.0000 C   0  0  0  0  0  0  0  0  0  0  0  0
    5.5495   -1.3754    0.0000 C   0  0  0  0  0  0  0  0  0  0  0  0
    6.3699   -1.4617    0.0000 O   0  0  0  0  0  0  0  0  0  0  0  0
    5.2139   -0.6217    0.0000 N   0  0  0  0  0  0  0  0  0  0  0  0
    5.6988    0.0457    0.0000 C   0  0  0  0  0  0  0  0  0  0  0  0
    5.3633    0.7994    0.0000 C   0  0  0  0  0  0  0  0  0  0  0  0
    4.5428    0.8856    0.0000 F   0  0  0  0  0  0  0  0  0  0  0  0
    5.8482    1.4668    0.0000 C   0  0  0  0  0  0  0  0  0  0  0  0
    6.6687    1.3806    0.0000 C   0  0  0  0  0  0  0  0  0  0  0  0
    7.0042    0.6269    0.0000 C   0  0  0  0  0  0  0  0  0  0  0  0
    6.5193   -0.0405    0.0000 C   0  0  0  0  0  0  0  0  0  0  0  0
    6.8549   -0.7942    0.0000 F   0  0  0  0  0  0  0  0  0  0  0  0
    5.4001   -2.7965    0.0000 C   0  0  0  0  0  0  0  0  0  0  0  0
    4.9152   -3.4640    0.0000 C   0  0  0  0  0  0  0  0  0  0  0  0
    5.2507   -4.2176    0.0000 F   0  0  0  0  0  0  0  0  0  0  0  0
    2.7848   -4.0452    0.0000 C   0  0  0  0  0  0  0  0  0  0  0  0
    2.2998   -3.3777    0.0000 O   0  0  0  0  0  0  0  0  0  0  0  0
  1  2  1  0  0  0  0
  2  3  1  0  0  0  0
  3  4  4  0  0  0  0
  4  5  1  0  0  0  0
  5  6  2  0  0  0  0
  5  7  1  0  0  0  0
  7  8  1  0  0  0  0
  8  9  1  0  0  0  0
  9 10  1  0  0  0  0
  8 10  1  0  0  0  0
  4 11  4  0  0  0  0
 11 12  4  0  0  0  0
 12 13  1  0  0  0  0
 13 14  4  0  0  0  0
 14 15  4  0  0  0  0
 15 16  1  0  0  0  0
 16 17  1  0  0  0  0
 17 18  1  0  0  0  0
 17 19  1  0  0  0  0
 19 20  1  0  0  0  0
 19 21  1  0  0  0  0
 19 22  1  0  0  0  0
 15 23  4  0  0  0  0
 23 24  1  0  0  0  0
 24 25  2  0  0  0  0
 24 26  1  0  0  0  0
 26 27  1  0  0  0  0
 27 28  4  0  0  0  0
 28 29  1  0  0  0  0
 28 30  4  0  0  0  0
 30 31  4  0  0  0  0
 31 32  4  0  0  0  0
 32 33  4  0  0  0  0
 27 33  4  0  0  0  0
 33 34  1  0  0  0  0
 23 35  4  0  0  0  0
 35 36  4  0  0  0  0
 13 36  4  0  0  0  0
 36 37  1  0  0  0  0
 12 38  4  0  0  0  0
  3 38  4  0  0  0  0
 38 39  2  0  0  0  0
M  END
> <IC50(uM)>
0.22

> <Outcome>
1.0

> <BindingDB ID>
1098845; 972691

> <BindingDB MonomerID>
470569

> <BindingDB Ligand Name>
N-cyclopropyl-1-(4-[(2,6-difluorophenyl)carbamoyl]-2-fluoro-5-{[(2S)-1,1,1-trifluoropropan-2-yl]oxy}phenyl)-4-ethyl-5-oxo-4,5-dihydro-1H-1,2,4-triazole-3-carboxamide::US10815215, Example 229::US11130745, Example 229; N-cyclopropyl-1-(4-[(2,6-difluorophenyl)carbamoyl]-2-fluoro-5-{[(2S)-1,1,1-trifluoropropan-2-yl]oxy}phenyl)-4-ethyl-5-oxo-4,5-dihydro-1H-1,2,4-triazole-3-carboxamide::US10815215, Example 229

> <Curation/DataSource>
US Patent

> <Article DOI>
?

> <PMID>
?

> <Patent Number>
US11130745; US10815215

> <Authors>
Gradl, SN; Nguyen, D; Eis, K; Gunther, J; Stellfeld, T; Janzer, A; Christian, S; Muller, T; Sheikh, SE; Sykes, DB; Ferrara, SJ; Krober, M; Merz, C; Niehues, M; Schafer, M; Zimmermann, K; Nising, CF; Gradl, SN; Nguyen, D; Eis, K; Gunther, J; Stellfeld, T; Janzer, A; Christian, S; Muller, T; Sheikh, SE; Zhou, HJ; Zhao, C; Sykes, DB; Ferrara, SJ; Liu, K; Krober, M; Merz, C; Niehues, M; Schafer, M; Zimmermann, K; Nising, CF

> <Link to Ligand in BindingDB>
http://www.bindingdb.org/bind/chemsearch/marvin/MolStructure.jsp?monomerid=470569

> <Link to Ligand-Target Pair in BindingDB>
http://www.bindingdb.org/jsp/dbsearch/PrimarySearch_ki.jsp?energyterm=kJ/mole&tag=r21&monomerid=470569&enzyme=Dihydroorotate+dehydrogenase&column=ki&startPg=0&Increment=50&submit=Search

> <PubChem CID>
134470428

> <PubChem SID>
441609745

$$$$

  Mrv2115 07222212352D          

 20 20  0  0  0  0            999 V2000
    2.5878   -3.3454    0.0000 C   0  0  0  0  0  0  0  0  0  0  0  0
    2.8579   -4.1250    0.0000 C   0  0  0  0  0  0  0  0  0  0  0  0
    3.6680   -4.2809    0.0000 O   0  0  0  0  0  0  0  0  0  0  0  0
    3.9381   -5.0605    0.0000 C   0  0  0  0  0  0  0  0  0  0  0  0
    3.3980   -5.6841    0.0000 O   0  0  0  0  0  0  0  0  0  0  0  0
    4.7482   -5.2164    0.0000 C   0  0  0  0  0  0  0  0  0  0  0  0
    5.0182   -5.9959    0.0000 C   0  0  0  0  0  0  0  0  0  0  0  0
    5.8284   -6.1518    0.0000 N   0  0  0  0  0  0  0  0  0  0  0  0
    6.0984   -6.9314    0.0000 C   0  0  0  0  0  0  0  0  0  0  0  0
    6.9086   -7.0873    0.0000 C   0  0  0  0  0  0  0  0  0  0  0  0
    7.1786   -7.8668    0.0000 C   0  0  0  0  0  0  0  0  0  0  0  0
    6.6385   -8.4905    0.0000 C   0  0  0  0  0  0  0  0  0  0  0  0
    5.8284   -8.3346    0.0000 C   0  0  0  0  0  0  0  0  0  0  0  0
    5.5583   -7.5550    0.0000 C   0  0  0  0  0  0  0  0  0  0  0  0
    4.7482   -7.3991    0.0000 C   0  0  0  0  0  0  0  0  0  0  0  0
    5.2883   -4.5927    0.0000 C   0  0  0  0  0  0  0  0  0  0  0  0
    5.0182   -3.8132    0.0000 O   0  0  0  0  0  0  0  0  0  0  0  0
    6.0984   -4.7486    0.0000 O   0  0  0  0  0  0  0  0  0  0  0  0
    6.6385   -4.1250    0.0000 C   0  0  0  0  0  0  0  0  0  0  0  0
    7.4486   -4.2809    0.0000 C   0  0  0  0  0  0  0  0  0  0  0  0
  1  2  1  0  0  0  0
  2  3  1  0  0  0  0
  3  4  1  0  0  0  0
  4  5  2  0  0  0  0
  4  6  1  0  0  0  0
  7  6  1  4  0  0  0
  7  8  2  0  0  0  0
  8  9  1  0  0  0  0
  9 10  4  0  0  0  0
 10 11  4  0  0  0  0
 11 12  4  0  0  0  0
 12 13  4  0  0  0  0
 13 14  4  0  0  0  0
  9 14  4  0  0  0  0
 14 15  1  0  0  0  0
  6 16  1  0  0  0  0
 16 17  2  0  0  0  0
 16 18  1  0  0  0  0
 18 19  1  0  0  0  0
 19 20  1  0  0  0  0
M  END
> <IC50(uM)>
292.2

> <Outcome>
0.0

> <BindingDB ID>
26832

> <BindingDB MonomerID>
14704

> <BindingDB Ligand Name>
1,3-diethyl 2-{[(2-methylphenyl)amino]methylidene}propanedioate::2-(o-Tolylamino-methylene)-malonic acid diethyl ester::monocyclic compound 9

> <Curation/DataSource>
Curated from the literature by BindingDB

> <Article DOI>
10.1021/jm060687j

> <PMID>
17228860

> <Patent Number>
?

> <Authors>
Heikkila, T; Ramsey, C; Davies, M; Galtier, C; Stead, AM; Johnson, AP; Fishwick, CW; Boa, AN; McConkey, GA

> <Link to Ligand in BindingDB>
http://www.bindingdb.org/bind/chemsearch/marvin/MolStructure.jsp?monomerid=14704

> <Link to Ligand-Target Pair in BindingDB>
http://www.bindingdb.org/jsp/dbsearch/PrimarySearch_ki.jsp?energyterm=kJ/mole&tag=r21&monomerid=14704&enzyme=Dihydroorotate+dehydrogenase&column=ki&startPg=0&Increment=50&submit=Search

> <PubChem CID>
53764644

> <PubChem SID>
46515034

$$$$

  Mrv2115 07222212352D          

 36 39  0  0  0  0            999 V2000
   -5.1659   -1.4124    0.0000 C   0  0  0  0  0  0  0  0  0  0  0  0
   -5.5784   -0.6979    0.0000 C   0  0  0  0  0  0  0  0  0  0  0  0
   -6.4034   -0.6979    0.0000 C   0  0  0  0  0  0  0  0  0  0  0  0
   -6.8159    0.0165    0.0000 C   0  0  0  0  0  0  0  0  0  0  0  0
   -7.6409    0.0165    0.0000 F   0  0  0  0  0  0  0  0  0  0  0  0
   -6.4034    0.7310    0.0000 C   0  0  0  0  0  0  0  0  0  0  0  0
   -5.5784    0.7310    0.0000 C   0  0  0  0  0  0  0  0  0  0  0  0
   -5.1659    1.4455    0.0000 C   0  0  0  0  0  0  0  0  0  0  0  0
   -5.1659    0.0165    0.0000 C   0  0  0  0  0  0  0  0  0  0  0  0
   -4.3409    0.0165    0.0000 N   0  0  0  0  0  0  0  0  0  0  0  0
   -3.9284   -0.6979    0.0000 C   0  0  0  0  0  0  0  0  0  0  0  0
   -4.3409   -1.4124    0.0000 O   0  0  0  0  0  0  0  0  0  0  0  0
   -3.1034   -0.6979    0.0000 C   0  0  0  0  0  0  0  0  0  0  0  0
   -2.6909    0.0165    0.0000 C   0  0  0  0  0  0  0  0  0  0  0  0
   -1.8659    0.0165    0.0000 C   0  0  0  0  0  0  0  0  0  0  0  0
   -1.4534    0.7310    0.0000 F   0  0  0  0  0  0  0  0  0  0  0  0
   -1.4534   -0.6979    0.0000 C   0  0  0  0  0  0  0  0  0  0  0  0
   -0.6284   -0.6979    0.0000 N   0  0  0  0  0  0  0  0  0  0  0  0
   -0.1435   -1.3654    0.0000 N   0  0  0  0  0  0  0  0  0  0  0  0
    0.6411   -1.1104    0.0000 C   0  0  0  0  0  0  0  0  0  0  0  0
    0.6411   -0.2854    0.0000 N   0  0  0  0  0  0  0  0  0  0  0  0
   -0.1435   -0.0305    0.0000 C   0  0  0  0  0  0  0  0  0  0  0  0
   -0.3984    0.7541    0.0000 O   0  0  0  0  0  0  0  0  0  0  0  0
    1.3556    0.1271    0.0000 C   0  0  0  0  0  0  0  0  0  0  0  0
    2.0701   -0.2854    0.0000 C   0  0  0  0  0  0  0  0  0  0  0  0
    2.0701   -1.1104    0.0000 O   0  0  0  0  0  0  0  0  0  0  0  0
    1.3556   -1.5229    0.0000 C   0  0  0  0  0  0  0  0  0  0  0  0
   -1.8659   -1.4124    0.0000 C   0  0  0  0  0  0  0  0  0  0  0  0
   -2.6909   -1.4124    0.0000 C   0  0  0  0  0  0  0  0  0  0  0  0
   -3.1034   -2.1269    0.0000 O   0  0  0  0  0  0  0  0  0  0  0  0
   -2.6909   -2.8414    0.0000 C   0  0  0  0  0  0  0  0  0  0  0  0
   -1.8659   -2.8414    0.0000 C   0  0  0  0  0  0  0  0  0  0  0  0
   -3.1034   -3.5558    0.0000 C   0  0  0  0  0  0  0  0  0  0  0  0
   -3.8179   -3.1433    0.0000 F   0  0  0  0  0  0  0  0  0  0  0  0
   -2.3890   -3.9683    0.0000 F   0  0  0  0  0  0  0  0  0  0  0  0
   -3.5159   -4.2703    0.0000 F   0  0  0  0  0  0  0  0  0  0  0  0
  1  2  1  0  0  0  0
  2  3  4  0  0  0  0
  3  4  4  0  0  0  0
  4  5  1  0  0  0  0
  4  6  4  0  0  0  0
  6  7  4  0  0  0  0
  7  8  1  0  0  0  0
  7  9  4  0  0  0  0
  2  9  4  0  0  0  0
  9 10  1  0  0  0  0
 10 11  1  0  0  0  0
 11 12  2  0  0  0  0
 11 13  1  0  0  0  0
 13 14  4  0  0  0  0
 14 15  4  0  0  0  0
 15 16  1  0  0  0  0
 15 17  4  0  0  0  0
 17 18  1  0  0  0  0
 18 19  4  0  0  0  0
 19 20  4  0  0  0  0
 20 21  4  0  0  0  0
 21 22  4  0  0  0  0
 18 22  4  0  0  0  0
 22 23  2  0  0  0  0
 21 24  1  0  0  0  0
 24 25  1  0  0  0  0
 25 26  1  0  0  0  0
 26 27  1  0  0  0  0
 20 27  1  0  0  0  0
 17 28  4  0  0  0  0
 28 29  4  0  0  0  0
 13 29  4  0  0  0  0
 29 30  1  0  0  0  0
 30 31  1  0  0  0  0
 31 32  1  0  0  0  0
 31 33  1  0  0  0  0
 33 34  1  0  0  0  0
 33 35  1  0  0  0  0
 33 36  1  0  0  0  0
M  END
> <IC50(uM)>
0.032

> <Outcome>
1.0

> <BindingDB ID>
1020594

> <BindingDB MonomerID>
490533

> <BindingDB Ligand Name>
5-fluoro-N-(4-fluoro-2,6-dimethylphenyl)-4-(3-oxo-5,6-dihydro-3H-[1,2,4]triazolo[3,4-c]-[1,4]oxazin-2(8H)-yl)-2-{[(2S)-1,1,1-trifluoropropan-2-yl]oxy}benzamide::US10968216, Example 201

> <Curation/DataSource>
US Patent

> <Article DOI>
?

> <PMID>
?

> <Patent Number>
US10968216

> <Authors>
Gradl, SN; Nguyen, D; Eis, K; Gunther, J; Stellfeld, T; Janzer, A; Christian, S; Mueller, T; Sheikh, SE; Zhou, HJ; Zhao, C; Sykes, DB; Ferrara, SJ; Liu, K; Herbert, SA; Merz, C; Niehues, M; Nising, CF; Schafer, M; Zimmermann, K; Knablein, J; Thede, K; Faupel, T

> <Link to Ligand in BindingDB>
http://www.bindingdb.org/bind/chemsearch/marvin/MolStructure.jsp?monomerid=490533

> <Link to Ligand-Target Pair in BindingDB>
http://www.bindingdb.org/jsp/dbsearch/PrimarySearch_ki.jsp?energyterm=kJ/mole&tag=r21&monomerid=490533&enzyme=Dihydroorotate+dehydrogenase&column=ki&startPg=0&Increment=50&submit=Search

> <PubChem CID>
134474524

> <PubChem SID>
447117259

$$$$

  Mrv2115 07222212352D          

 23 24  0  0  0  0            999 V2000
    0.7145   -0.4125    0.0000 C   0  0  0  0  0  0  0  0  0  0  0  0
    0.7145   -1.2375    0.0000 O   0  0  0  0  0  0  0  0  0  0  0  0
    1.4289   -1.6500    0.0000 C   0  0  0  0  0  0  0  0  0  0  0  0
    2.1434   -1.2375    0.0000 O   0  0  0  0  0  0  0  0  0  0  0  0
    1.4289   -2.4750    0.0000 C   0  0  0  0  0  0  0  0  0  0  0  0
    2.1434   -2.8875    0.0000 C   0  0  0  0  0  0  0  0  0  0  0  0
    2.1434   -3.7125    0.0000 C   0  0  0  0  0  0  0  0  0  0  0  0
    1.4289   -4.1250    0.0000 C   0  0  0  0  0  0  0  0  0  0  0  0
    1.4289   -4.9500    0.0000 C   0  0  0  0  0  0  0  0  0  0  0  0
    2.1434   -5.3625    0.0000 C   0  0  0  0  0  0  0  0  0  0  0  0
    2.1434   -6.1875    0.0000 C   0  0  0  0  0  0  0  0  0  0  0  0
    2.8579   -6.6000    0.0000 C   0  0  0  0  0  0  0  0  0  0  0  0
    3.5724   -6.1875    0.0000 C   0  0  0  0  0  0  0  0  0  0  0  0
    4.2868   -6.6000    0.0000 O   0  0  0  0  0  0  0  0  0  0  0  0
    3.5724   -5.3625    0.0000 O   0  0  0  0  0  0  0  0  0  0  0  0
    2.8579   -7.4250    0.0000 N   0  0  0  0  0  0  0  0  0  0  0  0
    2.1434   -7.8375    0.0000 C   0  0  0  0  0  0  0  0  0  0  0  0
    2.1434   -8.6625    0.0000 O   0  0  0  0  0  0  0  0  0  0  0  0
    1.4289   -7.4250    0.0000 N   0  0  0  0  0  0  0  0  0  0  0  0
    1.4289   -6.6000    0.0000 C   0  0  0  0  0  0  0  0  0  0  0  0
    0.7145   -6.1875    0.0000 O   0  0  0  0  0  0  0  0  0  0  0  0
    0.7145   -3.7125    0.0000 C   0  0  0  0  0  0  0  0  0  0  0  0
    0.7145   -2.8875    0.0000 C   0  0  0  0  0  0  0  0  0  0  0  0
  1  2  1  0  0  0  0
  2  3  1  0  0  0  0
  3  4  2  0  0  0  0
  3  5  1  0  0  0  0
  5  6  4  0  0  0  0
  6  7  4  0  0  0  0
  7  8  4  0  0  0  0
  8  9  1  0  0  0  0
  9 10  1  0  0  0  0
 10 11  1  0  0  0  0
 11 12  4  0  0  0  0
 12 13  1  0  0  0  0
 13 14  2  0  0  0  0
 13 15  1  0  0  0  0
 12 16  4  0  0  0  0
 16 17  4  0  0  0  0
 17 18  2  0  0  0  0
 17 19  4  0  0  0  0
 19 20  4  0  0  0  0
 11 20  4  0  0  0  0
 20 21  2  0  0  0  0
  8 22  4  0  0  0  0
 22 23  4  0  0  0  0
  5 23  4  0  0  0  0
M  STY  2   1 DAT   2 DAT
M  SAL   1  1  16
M  SDT   1 MRV_IMPLICIT_H                                        
M  SDD   1     0.5304   -0.4125    DR    ALL  0       0  
M  SED   1 IMPL_H1
M  SAL   2  1  19
M  SDT   2 MRV_IMPLICIT_H                                        
M  SDD   2     0.5304   -0.4125    DR    ALL  0       0  
M  SED   2 IMPL_H1
M  END
> <IC50(uM)>
2.79

> <Outcome>
0.0

> <BindingDB ID>
50555339

> <BindingDB MonomerID>
50211919

> <BindingDB Ligand Name>
CHEMBL3935411

> <Curation/DataSource>
ChEMBL

> <Article DOI>
10.1016/j.bmc.2017.01.009

> <PMID>
28118956

> <Patent Number>
?

> <Authors>
Inaoka, DK; Iida, M; Hashimoto, S; Tabuchi, T; Kuranaga, T; Balogun, EO; Honma, T; Tanaka, A; Harada, S; Nara, T; Kita, K; Inoue, M

> <Link to Ligand in BindingDB>
http://www.bindingdb.org/bind/chemsearch/marvin/MolStructure.jsp?monomerid=50211919

> <Link to Ligand-Target Pair in BindingDB>
http://www.bindingdb.org/jsp/dbsearch/PrimarySearch_ki.jsp?energyterm=kJ/mole&tag=r21&monomerid=50211919&enzyme=Dihydroorotate+dehydrogenase&column=ki&startPg=0&Increment=50&submit=Search

> <PubChem CID>
134148877

> <PubChem SID>
104087997

$$$$

  Mrv2115 07222212352D          

 35 38  0  0  0  0            999 V2000
    0.7145   -3.7125    0.0000 C   0  0  0  0  0  0  0  0  0  0  0  0
    1.4289   -4.1250    0.0000 C   0  0  0  0  0  0  0  0  0  0  0  0
    1.4289   -4.9500    0.0000 C   0  0  0  0  0  0  0  0  0  0  0  0
    2.0964   -5.4349    0.0000 N   0  0  0  0  0  0  0  0  0  0  0  0
    1.8414   -6.2195    0.0000 N   0  0  0  0  0  0  0  0  0  0  0  0
    2.3264   -6.8870    0.0000 C   0  0  0  0  0  0  0  0  0  0  0  0
    3.1468   -6.8007    0.0000 C   0  0  0  0  0  0  0  0  0  0  0  0
    3.6318   -7.4682    0.0000 C   0  0  0  0  0  0  0  0  0  0  0  0
    4.4522   -7.3820    0.0000 O   0  0  0  0  0  0  0  0  0  0  0  0
    4.7878   -6.6283    0.0000 C   0  0  0  0  0  0  0  0  0  0  0  0
    4.3029   -5.9608    0.0000 C   0  0  0  0  0  0  0  0  0  0  0  0
    5.6083   -6.5420    0.0000 C   0  0  0  0  0  0  0  0  0  0  0  0
    5.9438   -5.7884    0.0000 C   0  0  0  0  0  0  0  0  0  0  0  0
    6.7643   -5.7021    0.0000 C   0  0  0  0  0  0  0  0  0  0  0  0
    7.2492   -6.3696    0.0000 C   0  0  0  0  0  0  0  0  0  0  0  0
    6.9137   -7.1232    0.0000 C   0  0  0  0  0  0  0  0  0  0  0  0
    6.0932   -7.2095    0.0000 C   0  0  0  0  0  0  0  0  0  0  0  0
    3.2962   -8.2219    0.0000 C   0  0  0  0  0  0  0  0  0  0  0  0
    3.7811   -8.8893    0.0000 C   0  0  0  0  0  0  0  0  0  0  0  0
    3.4456   -9.6430    0.0000 O   0  0  0  0  0  0  0  0  0  0  0  0
    4.6016   -8.8031    0.0000 N   0  0  0  0  0  0  0  0  0  0  0  0
    5.0865   -9.4705    0.0000 C   0  0  0  0  0  0  0  0  0  0  0  0
    5.9070   -9.3843    0.0000 C   0  0  0  0  0  0  0  0  0  0  0  0
    6.3919  -10.0517    0.0000 N   0  0  0  0  0  0  0  0  0  0  0  0
    6.0564  -10.8054    0.0000 C   0  0  0  0  0  0  0  0  0  0  0  0
    5.2359  -10.8916    0.0000 C   0  0  0  0  0  0  0  0  0  0  0  0
    4.7510  -10.2242    0.0000 C   0  0  0  0  0  0  0  0  0  0  0  0
    3.9305  -10.3104    0.0000 C   0  0  0  0  0  0  0  0  0  0  0  0
    2.4757   -8.3081    0.0000 C   0  0  0  0  0  0  0  0  0  0  0  0
    1.9908   -7.6407    0.0000 C   0  0  0  0  0  0  0  0  0  0  0  0
    1.1703   -7.7269    0.0000 F   0  0  0  0  0  0  0  0  0  0  0  0
    1.0164   -6.2195    0.0000 C   0  0  0  0  0  0  0  0  0  0  0  0
    0.5315   -6.8870    0.0000 O   0  0  0  0  0  0  0  0  0  0  0  0
    0.7615   -5.4349    0.0000 N   0  0  0  0  0  0  0  0  0  0  0  0
   -0.0231   -5.1800    0.0000 C   0  0  0  0  0  0  0  0  0  0  0  0
  1  2  1  0  0  0  0
  2  3  1  0  0  0  0
  3  4  4  0  0  0  0
  4  5  4  0  0  0  0
  5  6  1  0  0  0  0
  6  7  4  0  0  0  0
  7  8  4  0  0  0  0
  8  9  1  0  0  0  0
  9 10  1  0  0  0  0
 10 11  1  0  0  0  0
 10 12  1  0  0  0  0
 12 13  4  0  0  0  0
 13 14  4  0  0  0  0
 14 15  4  0  0  0  0
 15 16  4  0  0  0  0
 16 17  4  0  0  0  0
 12 17  4  0  0  0  0
  8 18  4  0  0  0  0
 18 19  1  0  0  0  0
 19 20  2  0  0  0  0
 19 21  1  0  0  0  0
 21 22  1  0  0  0  0
 22 23  4  0  0  0  0
 23 24  4  0  0  0  0
 24 25  4  0  0  0  0
 25 26  4  0  0  0  0
 26 27  4  0  0  0  0
 22 27  4  0  0  0  0
 27 28  1  0  0  0  0
 18 29  4  0  0  0  0
 29 30  4  0  0  0  0
  6 30  4  0  0  0  0
 30 31  1  0  0  0  0
  5 32  4  0  0  0  0
 32 33  2  0  0  0  0
 32 34  4  0  0  0  0
  3 34  4  0  0  0  0
 34 35  1  0  0  0  0
M  END
> <IC50(uM)>
0.045

> <Outcome>
1.0

> <BindingDB ID>
1098818; 972664

> <BindingDB MonomerID>
470542

> <BindingDB Ligand Name>
4-(3-ethyl-4-methyl-5-oxo-4,5-dihydro-1H-1,2,4-triazol-1-yl)-5-fluoro-N-(4-methylpyridin-3-yl)-2-[(1S)-1-phenylethoxy]benzamide::US10815215, Example 202::US11130745, Example 202; 4-(3-ethyl-4-methyl-5-oxo-4,5-dihydro-1H-1,2,4-triazol-1-yl)-5-fluoro-N-(4-methylpyridin-3-yl)-2-[(1S)-1-phenylethoxy]benzamide::US10815215, Example 202

> <Curation/DataSource>
US Patent

> <Article DOI>
?

> <PMID>
?

> <Patent Number>
US11130745; US10815215

> <Authors>
Gradl, SN; Nguyen, D; Eis, K; Gunther, J; Stellfeld, T; Janzer, A; Christian, S; Muller, T; Sheikh, SE; Sykes, DB; Ferrara, SJ; Krober, M; Merz, C; Niehues, M; Schafer, M; Zimmermann, K; Nising, CF; Gradl, SN; Nguyen, D; Eis, K; Gunther, J; Stellfeld, T; Janzer, A; Christian, S; Muller, T; Sheikh, SE; Zhou, HJ; Zhao, C; Sykes, DB; Ferrara, SJ; Liu, K; Krober, M; Merz, C; Niehues, M; Schafer, M; Zimmermann, K; Nising, CF

> <Link to Ligand in BindingDB>
http://www.bindingdb.org/bind/chemsearch/marvin/MolStructure.jsp?monomerid=470542

> <Link to Ligand-Target Pair in BindingDB>
http://www.bindingdb.org/jsp/dbsearch/PrimarySearch_ki.jsp?energyterm=kJ/mole&tag=r21&monomerid=470542&enzyme=Dihydroorotate+dehydrogenase&column=ki&startPg=0&Increment=50&submit=Search

> <PubChem CID>
134470417

> <PubChem SID>
441609718

$$$$

  Mrv2115 07222212352D          

 27 29  0  0  0  0            999 V2000
    2.8579   -2.4750    0.0000 O   0  0  0  0  0  0  0  0  0  0  0  0
    2.8579   -1.6500    0.0000 C   0  0  0  0  0  0  0  0  0  0  0  0
    3.5724   -1.2375    0.0000 N   0  0  0  0  0  0  0  0  0  0  0  0
    4.2868   -1.6500    0.0000 C   0  0  0  0  0  0  0  0  0  0  0  0
    5.0013   -1.2375    0.0000 C   0  0  0  0  0  0  0  0  0  0  0  0
    5.7158   -1.6500    0.0000 C   0  0  0  0  0  0  0  0  0  0  0  0
    6.4302   -1.2375    0.0000 C   0  0  0  0  0  0  0  0  0  0  0  0
    6.4302   -0.4125    0.0000 C   0  0  0  0  0  0  0  0  0  0  0  0
    5.7158    0.0000    0.0000 C   0  0  0  0  0  0  0  0  0  0  0  0
    5.7158    0.8250    0.0000 O   0  0  0  0  0  0  0  0  0  0  0  0
    5.0013   -0.4125    0.0000 O   0  0  0  0  0  0  0  0  0  0  0  0
    7.1447    0.0000    0.0000 N   0  0  0  0  0  0  0  0  0  0  0  0
    7.8592   -0.4125    0.0000 C   0  0  0  0  0  0  0  0  0  0  0  0
    8.5737    0.0000    0.0000 O   0  0  0  0  0  0  0  0  0  0  0  0
    7.8592   -1.2375    0.0000 N   0  0  0  0  0  0  0  0  0  0  0  0
    7.1447   -1.6500    0.0000 C   0  0  0  0  0  0  0  0  0  0  0  0
    7.1447   -2.4750    0.0000 O   0  0  0  0  0  0  0  0  0  0  0  0
    2.1434   -1.2375    0.0000 C   0  0  0  0  0  0  0  0  0  0  0  0
    1.4289   -1.6500    0.0000 C   0  0  0  0  0  0  0  0  0  0  0  0
    0.7145   -1.2375    0.0000 C   0  0  0  0  0  0  0  0  0  0  0  0
    0.7145   -0.4125    0.0000 C   0  0  0  0  0  0  0  0  0  0  0  0
    0.0000    0.0000    0.0000 C   0  0  0  0  0  0  0  0  0  0  0  0
    0.0000    0.8250    0.0000 C   0  0  0  0  0  0  0  0  0  0  0  0
    0.7145    1.2375    0.0000 C   0  0  0  0  0  0  0  0  0  0  0  0
    1.4289    0.8250    0.0000 C   0  0  0  0  0  0  0  0  0  0  0  0
    1.4289    0.0000    0.0000 C   0  0  0  0  0  0  0  0  0  0  0  0
    2.1434   -0.4125    0.0000 C   0  0  0  0  0  0  0  0  0  0  0  0
  1  2  2  0  0  0  0
  2  3  1  0  0  0  0
  3  4  1  0  0  0  0
  4  5  1  0  0  0  0
  5  6  1  0  0  0  0
  6  7  1  0  0  0  0
  7  8  4  0  0  0  0
  8  9  1  0  0  0  0
  9 10  2  0  0  0  0
  9 11  1  0  0  0  0
  8 12  4  0  0  0  0
 12 13  4  0  0  0  0
 13 14  2  0  0  0  0
 13 15  4  0  0  0  0
 15 16  4  0  0  0  0
  7 16  4  0  0  0  0
 16 17  2  0  0  0  0
  2 18  1  0  0  0  0
 18 19  4  0  0  0  0
 19 20  4  0  0  0  0
 20 21  4  0  0  0  0
 21 22  4  0  0  0  0
 22 23  4  0  0  0  0
 23 24  4  0  0  0  0
 24 25  4  0  0  0  0
 25 26  4  0  0  0  0
 21 26  4  0  0  0  0
 26 27  4  0  0  0  0
 18 27  4  0  0  0  0
M  STY  2   1 DAT   2 DAT
M  SAL   1  1  12
M  SDT   1 MRV_IMPLICIT_H                                        
M  SDD   1     0.6482   -0.4125    DR    ALL  0       0  
M  SED   1 IMPL_H1
M  SAL   2  1  15
M  SDT   2 MRV_IMPLICIT_H                                        
M  SDD   2     0.5304   -0.4125    DR    ALL  0       0  
M  SED   2 IMPL_H1
M  END
> <IC50(uM)>
1.25

> <Outcome>
0.0

> <BindingDB ID>
50555212

> <BindingDB MonomerID>
50211678

> <BindingDB Ligand Name>
CHEMBL3971994

> <Curation/DataSource>
ChEMBL

> <Article DOI>
10.1016/j.bmc.2017.01.009

> <PMID>
28118956

> <Patent Number>
?

> <Authors>
Inaoka, DK; Iida, M; Hashimoto, S; Tabuchi, T; Kuranaga, T; Balogun, EO; Honma, T; Tanaka, A; Harada, S; Nara, T; Kita, K; Inoue, M

> <Link to Ligand in BindingDB>
http://www.bindingdb.org/bind/chemsearch/marvin/MolStructure.jsp?monomerid=50211678

> <Link to Ligand-Target Pair in BindingDB>
http://www.bindingdb.org/jsp/dbsearch/PrimarySearch_ki.jsp?energyterm=kJ/mole&tag=r21&monomerid=50211678&enzyme=Dihydroorotate+dehydrogenase&column=ki&startPg=0&Increment=50&submit=Search

> <PubChem CID>
134154001

> <PubChem SID>
375983031

$$$$

  Mrv2115 07222212352D          

 34 37  0  0  0  0            999 V2000
   -4.7854   -4.9886    0.0000 C   0  0  0  0  0  0  0  0  0  0  0  0
   -4.0709   -5.4011    0.0000 C   0  0  0  0  0  0  0  0  0  0  0  0
   -3.3565   -4.9886    0.0000 O   0  0  0  0  0  0  0  0  0  0  0  0
   -3.3565   -4.1636    0.0000 C   0  0  0  0  0  0  0  0  0  0  0  0
   -4.0709   -3.7511    0.0000 C   0  0  0  0  0  0  0  0  0  0  0  0
   -4.0709   -2.9261    0.0000 C   0  0  0  0  0  0  0  0  0  0  0  0
   -4.7854   -2.5136    0.0000 N   0  0  0  0  0  0  0  0  0  0  0  0
   -4.8717   -1.6931    0.0000 N   0  0  0  0  0  0  0  0  0  0  0  0
   -5.6786   -1.5216    0.0000 C   0  0  0  0  0  0  0  0  0  0  0  0
   -6.0911   -2.2361    0.0000 N   0  0  0  0  0  0  0  0  0  0  0  0
   -5.5391   -2.8491    0.0000 C   0  0  0  0  0  0  0  0  0  0  0  0
   -5.7106   -3.6561    0.0000 O   0  0  0  0  0  0  0  0  0  0  0  0
   -6.9161   -2.2361    0.0000 C   0  0  0  0  0  0  0  0  0  0  0  0
   -7.3286   -1.5216    0.0000 C   0  0  0  0  0  0  0  0  0  0  0  0
   -6.9161   -0.8071    0.0000 C   0  0  0  0  0  0  0  0  0  0  0  0
   -6.0911   -0.8071    0.0000 C   0  0  0  0  0  0  0  0  0  0  0  0
   -3.3565   -2.5136    0.0000 C   0  0  0  0  0  0  0  0  0  0  0  0
   -3.3565   -1.6886    0.0000 F   0  0  0  0  0  0  0  0  0  0  0  0
   -2.6420   -2.9261    0.0000 C   0  0  0  0  0  0  0  0  0  0  0  0
   -2.6420   -3.7511    0.0000 C   0  0  0  0  0  0  0  0  0  0  0  0
   -1.9275   -4.1636    0.0000 C   0  0  0  0  0  0  0  0  0  0  0  0
   -1.9275   -4.9886    0.0000 O   0  0  0  0  0  0  0  0  0  0  0  0
   -1.2131   -3.7511    0.0000 N   0  0  0  0  0  0  0  0  0  0  0  0
   -0.4986   -4.1636    0.0000 C   0  0  0  0  0  0  0  0  0  0  0  0
    0.2159   -3.7511    0.0000 C   0  0  0  0  0  0  0  0  0  0  0  0
    0.9303   -4.1636    0.0000 N   0  0  0  0  0  0  0  0  0  0  0  0
    1.6448   -3.7511    0.0000 C   0  0  0  0  0  0  0  0  0  0  0  0
    0.9303   -4.9886    0.0000 C   0  0  0  0  0  0  0  0  0  0  0  0
   -4.0709   -6.2261    0.0000 C   0  0  0  0  0  0  0  0  0  0  0  0
   -3.3565   -6.6386    0.0000 C   0  0  0  0  0  0  0  0  0  0  0  0
   -3.3565   -7.4636    0.0000 C   0  0  0  0  0  0  0  0  0  0  0  0
   -4.0709   -7.8761    0.0000 C   0  0  0  0  0  0  0  0  0  0  0  0
   -4.7854   -7.4636    0.0000 C   0  0  0  0  0  0  0  0  0  0  0  0
   -4.7854   -6.6386    0.0000 C   0  0  0  0  0  0  0  0  0  0  0  0
  1  2  1  0  0  0  0
  2  3  1  0  0  0  0
  3  4  1  0  0  0  0
  4  5  4  0  0  0  0
  5  6  4  0  0  0  0
  6  7  1  0  0  0  0
  7  8  4  0  0  0  0
  8  9  4  0  0  0  0
  9 10  4  0  0  0  0
 10 11  4  0  0  0  0
  7 11  4  0  0  0  0
 11 12  2  0  0  0  0
 10 13  1  0  0  0  0
 13 14  1  0  0  0  0
 14 15  1  0  0  0  0
 15 16  1  0  0  0  0
  9 16  1  0  0  0  0
  6 17  4  0  0  0  0
 17 18  1  0  0  0  0
 17 19  4  0  0  0  0
 19 20  4  0  0  0  0
  4 20  4  0  0  0  0
 20 21  1  0  0  0  0
 21 22  2  0  0  0  0
 21 23  1  0  0  0  0
 23 24  1  0  0  0  0
 24 25  1  0  0  0  0
 25 26  1  0  0  0  0
 26 27  1  0  0  0  0
 26 28  1  0  0  0  0
  2 29  1  0  0  0  0
 29 30  1  0  0  0  0
 30 31  1  0  0  0  0
 31 32  1  0  0  0  0
 32 33  1  0  0  0  0
 33 34  1  0  0  0  0
 29 34  1  0  0  0  0
M  END
> <IC50(uM)>
0.4

> <Outcome>
1.0

> <BindingDB ID>
1020553

> <BindingDB MonomerID>
490492

> <BindingDB Ligand Name>
2-[(1S)-1-cyclohexylethoxy]-N-[2-(dimethylamino)ethyl]-5-fluoro-4-(3-oxo-5,6,7,8-tetrahydro-[1,2,4]triazolo[4,3-a]pyridin-2(3H)-yl)benzamide::US10968216, Example 160

> <Curation/DataSource>
US Patent

> <Article DOI>
?

> <PMID>
?

> <Patent Number>
US10968216

> <Authors>
Gradl, SN; Nguyen, D; Eis, K; Gunther, J; Stellfeld, T; Janzer, A; Christian, S; Mueller, T; Sheikh, SE; Zhou, HJ; Zhao, C; Sykes, DB; Ferrara, SJ; Liu, K; Herbert, SA; Merz, C; Niehues, M; Nising, CF; Schafer, M; Zimmermann, K; Knablein, J; Thede, K; Faupel, T

> <Link to Ligand in BindingDB>
http://www.bindingdb.org/bind/chemsearch/marvin/MolStructure.jsp?monomerid=490492

> <Link to Ligand-Target Pair in BindingDB>
http://www.bindingdb.org/jsp/dbsearch/PrimarySearch_ki.jsp?energyterm=kJ/mole&tag=r21&monomerid=490492&enzyme=Dihydroorotate+dehydrogenase&column=ki&startPg=0&Increment=50&submit=Search

> <PubChem CID>
134474150

> <PubChem SID>
447117219

$$$$

  Mrv2115 07222212352D          

 26 29  0  0  0  0            999 V2000
    4.0668    2.3479    0.0000 C   0  0  0  0  0  0  0  0  0  0  0  0
    3.3523    1.9354    0.0000 C   0  0  0  0  0  0  0  0  0  0  0  0
    3.3523    1.1104    0.0000 C   0  0  0  0  0  0  0  0  0  0  0  0
    2.6378    0.6979    0.0000 C   0  0  0  0  0  0  0  0  0  0  0  0
    2.6378   -0.1271    0.0000 C   0  0  0  0  0  0  0  0  0  0  0  0
    1.9233   -0.5396    0.0000 O   0  0  0  0  0  0  0  0  0  0  0  0
    3.3523   -0.5396    0.0000 O   0  0  0  0  0  0  0  0  0  0  0  0
    1.9233    1.1104    0.0000 C   0  0  0  0  0  0  0  0  0  0  0  0
    1.1387    0.8555    0.0000 N   0  0  0  0  0  0  0  0  0  0  0  0
    0.6538    1.5229    0.0000 C   0  0  0  0  0  0  0  0  0  0  0  0
   -0.1712    1.5229    0.0000 C   0  0  0  0  0  0  0  0  0  0  0  0
   -0.5837    0.8085    0.0000 C   0  0  0  0  0  0  0  0  0  0  0  0
   -1.4087    0.8085    0.0000 C   0  0  0  0  0  0  0  0  0  0  0  0
   -1.8212    1.5229    0.0000 C   0  0  0  0  0  0  0  0  0  0  0  0
   -2.6462    1.5229    0.0000 C   0  0  0  0  0  0  0  0  0  0  0  0
   -3.0587    0.8085    0.0000 C   0  0  0  0  0  0  0  0  0  0  0  0
   -3.8837    0.8085    0.0000 C   0  0  0  0  0  0  0  0  0  0  0  0
   -4.2962    1.5229    0.0000 C   0  0  0  0  0  0  0  0  0  0  0  0
   -3.8837    2.2374    0.0000 C   0  0  0  0  0  0  0  0  0  0  0  0
   -3.0587    2.2374    0.0000 C   0  0  0  0  0  0  0  0  0  0  0  0
   -2.6462    2.9519    0.0000 F   0  0  0  0  0  0  0  0  0  0  0  0
   -1.4087    2.2374    0.0000 C   0  0  0  0  0  0  0  0  0  0  0  0
   -0.5837    2.2374    0.0000 C   0  0  0  0  0  0  0  0  0  0  0  0
    1.1387    2.1904    0.0000 N   0  0  0  0  0  0  0  0  0  0  0  0
    1.9233    1.9354    0.0000 C   0  0  0  0  0  0  0  0  0  0  0  0
    2.6378    2.3479    0.0000 C   0  0  0  0  0  0  0  0  0  0  0  0
  1  2  1  0  0  0  0
  2  3  4  0  0  0  0
  3  4  4  0  0  0  0
  4  5  1  0  0  0  0
  5  6  2  0  0  0  0
  5  7  1  0  0  0  0
  4  8  4  0  0  0  0
  8  9  4  0  0  0  0
  9 10  4  0  0  0  0
 10 11  1  0  0  0  0
 11 12  4  0  0  0  0
 12 13  4  0  0  0  0
 13 14  4  0  0  0  0
 14 15  1  0  0  0  0
 15 16  4  0  0  0  0
 16 17  4  0  0  0  0
 17 18  4  0  0  0  0
 18 19  4  0  0  0  0
 19 20  4  0  0  0  0
 15 20  4  0  0  0  0
 20 21  1  0  0  0  0
 14 22  4  0  0  0  0
 22 23  4  0  0  0  0
 11 23  4  0  0  0  0
 10 24  4  0  0  0  0
 24 25  4  0  0  0  0
  8 25  4  0  0  0  0
 25 26  4  0  0  0  0
  2 26  4  0  0  0  0
M  STY  1   1 DAT
M  SAL   1  1   9
M  SDT   1 MRV_IMPLICIT_H                                        
M  SDD   1     0.5304   -0.4125    DR    ALL  0       0  
M  SED   1 IMPL_H1
M  END
> <IC50(uM)>
0.373

> <Outcome>
1.0

> <BindingDB ID>
297758

> <BindingDB MonomerID>
155414

> <BindingDB Ligand Name>
US9006454, I26

> <Curation/DataSource>
US Patent

> <Article DOI>
?

> <PMID>
?

> <Patent Number>
US9006454

> <Authors>
Thunuguntla, SS; Subramanya, H; Kunnam, SR; Sanivaru Vijay, SR; Bingi, C; Kusanur, R; Schwarz, M; Arlt, M

> <Link to Ligand in BindingDB>
http://www.bindingdb.org/bind/chemsearch/marvin/MolStructure.jsp?monomerid=155414

> <Link to Ligand-Target Pair in BindingDB>
http://www.bindingdb.org/jsp/dbsearch/PrimarySearch_ki.jsp?energyterm=kJ/mole&tag=r21&monomerid=155414&enzyme=Dihydroorotate+dehydrogenase&column=ki&startPg=0&Increment=50&submit=Search

> <PubChem CID>
46946186

> <PubChem SID>
253658351

$$$$

  Mrv2115 07222212352D          

 28 30  0  0  0  0            999 V2000
   -0.7145   -2.8875    0.0000 C   0  0  0  0  0  0  0  0  0  0  0  0
    0.0000   -2.4750    0.0000 N   0  0  0  0  0  0  0  0  0  0  0  0
    0.7145   -2.8875    0.0000 C   0  0  0  0  0  0  0  0  0  0  0  0
    0.0000   -1.6500    0.0000 C   0  0  0  0  0  0  0  0  0  0  0  0
   -0.7145   -1.2375    0.0000 O   0  0  0  0  0  0  0  0  0  0  0  0
    0.7145   -1.2375    0.0000 C   0  0  0  0  0  0  0  0  0  0  0  0
    0.7145   -0.4125    0.0000 C   0  0  0  0  0  0  0  0  0  0  0  0
    1.4289    0.0000    0.0000 C   0  0  0  0  0  0  0  0  0  0  0  0
    2.1434   -0.4125    0.0000 C   0  0  0  0  0  0  0  0  0  0  0  0
    2.8579    0.0000    0.0000 C   0  0  0  0  0  0  0  0  0  0  0  0
    3.5724   -0.4125    0.0000 C   0  0  0  0  0  0  0  0  0  0  0  0
    4.2868   -0.0000    0.0000 C   0  0  0  0  0  0  0  0  0  0  0  0
    4.2868    0.8250    0.0000 C   0  0  0  0  0  0  0  0  0  0  0  0
    5.0013    1.2375    0.0000 C   0  0  0  0  0  0  0  0  0  0  0  0
    5.0013    2.0625    0.0000 C   0  0  0  0  0  0  0  0  0  0  0  0
    4.2868    2.4750    0.0000 C   0  0  0  0  0  0  0  0  0  0  0  0
    4.2868    3.3000    0.0000 O   0  0  0  0  0  0  0  0  0  0  0  0
    3.5724    2.0625    0.0000 O   0  0  0  0  0  0  0  0  0  0  0  0
    5.7158    2.4750    0.0000 N   0  0  0  0  0  0  0  0  0  0  0  0
    6.4302    2.0625    0.0000 C   0  0  0  0  0  0  0  0  0  0  0  0
    7.1447    2.4750    0.0000 O   0  0  0  0  0  0  0  0  0  0  0  0
    6.4302    1.2375    0.0000 N   0  0  0  0  0  0  0  0  0  0  0  0
    5.7158    0.8250    0.0000 C   0  0  0  0  0  0  0  0  0  0  0  0
    5.7158   -0.0000    0.0000 O   0  0  0  0  0  0  0  0  0  0  0  0
    3.5724   -1.2375    0.0000 C   0  0  0  0  0  0  0  0  0  0  0  0
    2.8579   -1.6500    0.0000 C   0  0  0  0  0  0  0  0  0  0  0  0
    2.1434   -1.2375    0.0000 C   0  0  0  0  0  0  0  0  0  0  0  0
    1.4289   -1.6500    0.0000 C   0  0  0  0  0  0  0  0  0  0  0  0
  1  2  1  0  0  0  0
  2  3  1  0  0  0  0
  2  4  1  0  0  0  0
  4  5  2  0  0  0  0
  4  6  1  0  0  0  0
  6  7  4  0  0  0  0
  7  8  4  0  0  0  0
  8  9  4  0  0  0  0
  9 10  4  0  0  0  0
 10 11  4  0  0  0  0
 11 12  1  0  0  0  0
 12 13  1  0  0  0  0
 13 14  1  0  0  0  0
 14 15  4  0  0  0  0
 15 16  1  0  0  0  0
 16 17  2  0  0  0  0
 16 18  1  0  0  0  0
 15 19  4  0  0  0  0
 19 20  4  0  0  0  0
 20 21  2  0  0  0  0
 20 22  4  0  0  0  0
 22 23  4  0  0  0  0
 14 23  4  0  0  0  0
 23 24  2  0  0  0  0
 11 25  4  0  0  0  0
 25 26  4  0  0  0  0
 26 27  4  0  0  0  0
  9 27  4  0  0  0  0
 27 28  4  0  0  0  0
  6 28  4  0  0  0  0
M  STY  2   1 DAT   2 DAT
M  SAL   1  1  19
M  SDT   1 MRV_IMPLICIT_H                                        
M  SDD   1     0.6482   -0.4125    DR    ALL  0       0  
M  SED   1 IMPL_H1
M  SAL   2  1  22
M  SDT   2 MRV_IMPLICIT_H                                        
M  SDD   2     0.5304   -0.4125    DR    ALL  0       0  
M  SED   2 IMPL_H1
M  END
> <IC50(uM)>
1.274

> <Outcome>
0.0

> <BindingDB ID>
50555286

> <BindingDB MonomerID>
50211717

> <BindingDB Ligand Name>
CHEMBL3979005

> <Curation/DataSource>
ChEMBL

> <Article DOI>
10.1016/j.bmc.2017.01.009

> <PMID>
28118956

> <Patent Number>
?

> <Authors>
Inaoka, DK; Iida, M; Hashimoto, S; Tabuchi, T; Kuranaga, T; Balogun, EO; Honma, T; Tanaka, A; Harada, S; Nara, T; Kita, K; Inoue, M

> <Link to Ligand in BindingDB>
http://www.bindingdb.org/bind/chemsearch/marvin/MolStructure.jsp?monomerid=50211717

> <Link to Ligand-Target Pair in BindingDB>
http://www.bindingdb.org/jsp/dbsearch/PrimarySearch_ki.jsp?energyterm=kJ/mole&tag=r21&monomerid=50211717&enzyme=Dihydroorotate+dehydrogenase&column=ki&startPg=0&Increment=50&submit=Search

> <PubChem CID>
134151915

> <PubChem SID>
375983060

$$$$

  Mrv2115 07222212352D          

 36 40  0  0  0  0            999 V2000
   -5.1659   -2.8414    0.0000 C   0  0  0  0  0  0  0  0  0  0  0  0
   -5.5784   -2.1269    0.0000 C   0  0  0  0  0  0  0  0  0  0  0  0
   -6.4034   -2.1269    0.0000 C   0  0  0  0  0  0  0  0  0  0  0  0
   -6.8159   -1.4124    0.0000 C   0  0  0  0  0  0  0  0  0  0  0  0
   -6.4034   -0.6979    0.0000 C   0  0  0  0  0  0  0  0  0  0  0  0
   -5.5784   -0.6979    0.0000 N   0  0  0  0  0  0  0  0  0  0  0  0
   -5.1659   -1.4124    0.0000 C   0  0  0  0  0  0  0  0  0  0  0  0
   -4.3409   -1.4124    0.0000 N   0  0  0  0  0  0  0  0  0  0  0  0
   -3.9284   -0.6979    0.0000 C   0  0  0  0  0  0  0  0  0  0  0  0
   -4.3409    0.0165    0.0000 O   0  0  0  0  0  0  0  0  0  0  0  0
   -3.1034   -0.6979    0.0000 C   0  0  0  0  0  0  0  0  0  0  0  0
   -2.6909    0.0165    0.0000 C   0  0  0  0  0  0  0  0  0  0  0  0
   -1.8659    0.0165    0.0000 C   0  0  0  0  0  0  0  0  0  0  0  0
   -1.4534    0.7310    0.0000 F   0  0  0  0  0  0  0  0  0  0  0  0
   -1.4534   -0.6979    0.0000 C   0  0  0  0  0  0  0  0  0  0  0  0
   -0.6284   -0.6979    0.0000 N   0  0  0  0  0  0  0  0  0  0  0  0
   -0.1435   -1.3654    0.0000 N   0  0  0  0  0  0  0  0  0  0  0  0
    0.6411   -1.1104    0.0000 C   0  0  0  0  0  0  0  0  0  0  0  0
    0.6411   -0.2854    0.0000 N   0  0  0  0  0  0  0  0  0  0  0  0
   -0.1435   -0.0305    0.0000 C   0  0  0  0  0  0  0  0  0  0  0  0
   -0.3984    0.7541    0.0000 O   0  0  0  0  0  0  0  0  0  0  0  0
    1.3556    0.1271    0.0000 C   0  0  0  0  0  0  0  0  0  0  0  0
    2.0701   -0.2854    0.0000 C   0  0  0  0  0  0  0  0  0  0  0  0
    2.0701   -1.1104    0.0000 C   0  0  0  0  0  0  0  0  0  0  0  0
    1.3556   -1.5229    0.0000 C   0  0  0  0  0  0  0  0  0  0  0  0
   -1.8659   -1.4124    0.0000 C   0  0  0  0  0  0  0  0  0  0  0  0
   -2.6909   -1.4124    0.0000 C   0  0  0  0  0  0  0  0  0  0  0  0
   -3.1034   -2.1269    0.0000 O   0  0  0  0  0  0  0  0  0  0  0  0
   -2.6909   -2.8414    0.0000 C   0  0  0  0  0  0  0  0  0  0  0  0
   -1.8659   -2.8414    0.0000 C   0  0  0  0  0  0  0  0  0  0  0  0
   -3.1034   -3.5558    0.0000 C   0  0  0  0  0  0  0  0  0  0  0  0
   -2.6909   -4.2703    0.0000 C   0  0  0  0  0  0  0  0  0  0  0  0
   -3.1034   -4.9848    0.0000 C   0  0  0  0  0  0  0  0  0  0  0  0
   -3.9284   -4.9848    0.0000 C   0  0  0  0  0  0  0  0  0  0  0  0
   -4.3409   -4.2703    0.0000 C   0  0  0  0  0  0  0  0  0  0  0  0
   -3.9284   -3.5558    0.0000 C   0  0  0  0  0  0  0  0  0  0  0  0
  1  2  1  0  0  0  0
  2  3  4  0  0  0  0
  3  4  4  0  0  0  0
  4  5  4  0  0  0  0
  5  6  4  0  0  0  0
  6  7  4  0  0  0  0
  2  7  4  0  0  0  0
  7  8  1  0  0  0  0
  8  9  1  0  0  0  0
  9 10  2  0  0  0  0
  9 11  1  0  0  0  0
 11 12  4  0  0  0  0
 12 13  4  0  0  0  0
 13 14  1  0  0  0  0
 13 15  4  0  0  0  0
 15 16  1  0  0  0  0
 16 17  4  0  0  0  0
 17 18  4  0  0  0  0
 18 19  4  0  0  0  0
 19 20  4  0  0  0  0
 16 20  4  0  0  0  0
 20 21  2  0  0  0  0
 19 22  1  0  0  0  0
 22 23  1  0  0  0  0
 23 24  1  0  0  0  0
 24 25  1  0  0  0  0
 18 25  1  0  0  0  0
 15 26  4  0  0  0  0
 26 27  4  0  0  0  0
 11 27  4  0  0  0  0
 27 28  1  0  0  0  0
 28 29  1  0  0  0  0
 29 30  1  0  0  0  0
 29 31  1  0  0  0  0
 31 32  1  0  0  0  0
 32 33  1  0  0  0  0
 33 34  1  0  0  0  0
 34 35  1  0  0  0  0
 35 36  1  0  0  0  0
 31 36  1  0  0  0  0
M  END
> <IC50(uM)>
0.0095

> <Outcome>
1.0

> <BindingDB ID>
1020549

> <BindingDB MonomerID>
490488

> <BindingDB Ligand Name>
2-[(1S)-1-cyclohexylethoxy]-5-fluoro-N-(3-methylpyridin-2-yl)-4-(3-oxo-5,6,7,8-tetrahydro-[1,2,4]triazolo[4,3-a]pyridin-2(3H)-yl)benzamide::US10968216, Example 156

> <Curation/DataSource>
US Patent

> <Article DOI>
?

> <PMID>
?

> <Patent Number>
US10968216

> <Authors>
Gradl, SN; Nguyen, D; Eis, K; Gunther, J; Stellfeld, T; Janzer, A; Christian, S; Mueller, T; Sheikh, SE; Zhou, HJ; Zhao, C; Sykes, DB; Ferrara, SJ; Liu, K; Herbert, SA; Merz, C; Niehues, M; Nising, CF; Schafer, M; Zimmermann, K; Knablein, J; Thede, K; Faupel, T

> <Link to Ligand in BindingDB>
http://www.bindingdb.org/bind/chemsearch/marvin/MolStructure.jsp?monomerid=490488

> <Link to Ligand-Target Pair in BindingDB>
http://www.bindingdb.org/jsp/dbsearch/PrimarySearch_ki.jsp?energyterm=kJ/mole&tag=r21&monomerid=490488&enzyme=Dihydroorotate+dehydrogenase&column=ki&startPg=0&Increment=50&submit=Search

> <PubChem CID>
142335911

> <PubChem SID>
447117215

$$$$

  Mrv2115 07222212352D          

 28 30  0  0  0  0            999 V2000
   -0.7145    1.2375    0.0000 C   0  0  0  0  0  0  0  0  0  0  0  0
    0.0000    0.8250    0.0000 C   0  0  0  0  0  0  0  0  0  0  0  0
    0.0000   -0.0000    0.0000 O   0  0  0  0  0  0  0  0  0  0  0  0
    0.7145   -0.4125    0.0000 C   0  0  0  0  0  0  0  0  0  0  0  0
    1.4289   -0.0000    0.0000 O   0  0  0  0  0  0  0  0  0  0  0  0
    0.7145   -1.2375    0.0000 C   0  0  0  0  0  0  0  0  0  0  0  0
    1.3819   -1.7224    0.0000 S   0  0  0  0  0  0  0  0  0  0  0  0
    1.1270   -2.5070    0.0000 C   0  0  0  0  0  0  0  0  0  0  0  0
    1.6119   -3.1745    0.0000 N   0  0  0  0  0  0  0  0  0  0  0  0
    1.2763   -3.9282    0.0000 C   0  0  0  0  0  0  0  0  0  0  0  0
    1.7613   -4.5956    0.0000 C   0  0  0  0  0  0  0  0  0  0  0  0
    1.4257   -5.3493    0.0000 C   0  0  0  0  0  0  0  0  0  0  0  0
    0.6052   -5.4355    0.0000 C   0  0  0  0  0  0  0  0  0  0  0  0
    0.2697   -6.1892    0.0000 Br  0  0  0  0  0  0  0  0  0  0  0  0
    0.1203   -4.7681    0.0000 C   0  0  0  0  0  0  0  0  0  0  0  0
   -0.7002   -4.8543    0.0000 C   0  0  0  0  0  0  0  0  0  0  0  0
   -1.5207   -4.9405    0.0000 F   0  0  0  0  0  0  0  0  0  0  0  0
   -0.7864   -4.0338    0.0000 F   0  0  0  0  0  0  0  0  0  0  0  0
   -0.6139   -5.6748    0.0000 F   0  0  0  0  0  0  0  0  0  0  0  0
    0.4559   -4.0144    0.0000 C   0  0  0  0  0  0  0  0  0  0  0  0
    0.3020   -2.5070    0.0000 N   0  0  0  0  0  0  0  0  0  0  0  0
    0.0470   -1.7224    0.0000 C   0  0  0  0  0  0  0  0  0  0  0  0
   -0.7376   -1.4675    0.0000 C   0  0  0  0  0  0  0  0  0  0  0  0
   -1.3507   -2.0195    0.0000 C   0  0  0  0  0  0  0  0  0  0  0  0
   -2.1353   -1.7646    0.0000 C   0  0  0  0  0  0  0  0  0  0  0  0
   -2.3068   -0.9576    0.0000 C   0  0  0  0  0  0  0  0  0  0  0  0
   -1.6937   -0.4056    0.0000 C   0  0  0  0  0  0  0  0  0  0  0  0
   -0.9091   -0.6605    0.0000 C   0  0  0  0  0  0  0  0  0  0  0  0
  1  2  1  0  0  0  0
  2  3  1  0  0  0  0
  3  4  1  0  0  0  0
  4  5  2  0  0  0  0
  4  6  1  0  0  0  0
  6  7  4  0  0  0  0
  7  8  4  0  0  0  0
  8  9  1  0  0  0  0
  9 10  1  0  0  0  0
 10 11  4  0  0  0  0
 11 12  4  0  0  0  0
 12 13  4  0  0  0  0
 13 14  1  0  0  0  0
 13 15  4  0  0  0  0
 15 16  1  0  0  0  0
 16 17  1  0  0  0  0
 16 18  1  0  0  0  0
 16 19  1  0  0  0  0
 15 20  4  0  0  0  0
 10 20  4  0  0  0  0
  8 21  4  0  0  0  0
 21 22  4  0  0  0  0
  6 22  4  0  0  0  0
 22 23  1  0  0  0  0
 23 24  4  0  0  0  0
 24 25  4  0  0  0  0
 25 26  4  0  0  0  0
 26 27  4  0  0  0  0
 27 28  4  0  0  0  0
 23 28  4  0  0  0  0
M  END
> <IC50(uM)>
0.128

> <Outcome>
1.0

> <BindingDB ID>
50312262

> <BindingDB MonomerID>
50071600

> <BindingDB Ligand Name>
CHEMBL3410603

> <Curation/DataSource>
ChEMBL

> <Article DOI>
10.1021/jm501127s

> <PMID>
25580811

> <Patent Number>
?

> <Authors>
Zhu, J; Han, L; Diao, Y; Ren, X; Xu, M; Xu, L; Li, S; Li, Q; Dong, D; Huang, J; Liu, X; Zhao, Z; Wang, R; Zhu, L; Xu, Y; Qian, X; Li, H

> <Link to Ligand in BindingDB>
http://www.bindingdb.org/bind/chemsearch/marvin/MolStructure.jsp?monomerid=50071600

> <Link to Ligand-Target Pair in BindingDB>
http://www.bindingdb.org/jsp/dbsearch/PrimarySearch_ki.jsp?energyterm=kJ/mole&tag=r21&monomerid=50071600&enzyme=Dihydroorotate+dehydrogenase&column=ki&startPg=0&Increment=50&submit=Search

> <PubChem CID>
118732514

> <PubChem SID>
313072547

$$$$

  Mrv2115 07222212352D          

 36 39  0  0  0  0            999 V2000
    0.7145   -3.7125    0.0000 C   0  0  0  0  0  0  0  0  0  0  0  0
    1.4289   -4.1250    0.0000 C   0  0  0  0  0  0  0  0  0  0  0  0
    1.4289   -4.9500    0.0000 C   0  0  0  0  0  0  0  0  0  0  0  0
    2.0964   -5.4349    0.0000 N   0  0  0  0  0  0  0  0  0  0  0  0
    1.8414   -6.2195    0.0000 N   0  0  0  0  0  0  0  0  0  0  0  0
    2.3264   -6.8870    0.0000 C   0  0  0  0  0  0  0  0  0  0  0  0
    3.1468   -6.8007    0.0000 C   0  0  0  0  0  0  0  0  0  0  0  0
    3.6318   -7.4682    0.0000 C   0  0  0  0  0  0  0  0  0  0  0  0
    4.4522   -7.3820    0.0000 O   0  0  0  0  0  0  0  0  0  0  0  0
    4.7878   -6.6283    0.0000 C   0  0  0  0  0  0  0  0  0  0  0  0
    4.3029   -5.9608    0.0000 C   0  0  0  0  0  0  0  0  0  0  0  0
    5.6083   -6.5420    0.0000 C   0  0  0  0  0  0  0  0  0  0  0  0
    5.9438   -5.7884    0.0000 C   0  0  0  0  0  0  0  0  0  0  0  0
    6.7643   -5.7021    0.0000 C   0  0  0  0  0  0  0  0  0  0  0  0
    7.2492   -6.3696    0.0000 C   0  0  0  0  0  0  0  0  0  0  0  0
    6.9137   -7.1232    0.0000 C   0  0  0  0  0  0  0  0  0  0  0  0
    6.0932   -7.2095    0.0000 C   0  0  0  0  0  0  0  0  0  0  0  0
    3.2962   -8.2219    0.0000 C   0  0  0  0  0  0  0  0  0  0  0  0
    3.7811   -8.8893    0.0000 C   0  0  0  0  0  0  0  0  0  0  0  0
    3.4456   -9.6430    0.0000 O   0  0  0  0  0  0  0  0  0  0  0  0
    4.6016   -8.8031    0.0000 N   0  0  0  0  0  0  0  0  0  0  0  0
    5.0865   -9.4705    0.0000 C   0  0  0  0  0  0  0  0  0  0  0  0
    5.9070   -9.3843    0.0000 C   0  0  0  0  0  0  0  0  0  0  0  0
    6.2426   -8.6306    0.0000 C   0  0  0  0  0  0  0  0  0  0  0  0
    6.3919  -10.0517    0.0000 C   0  0  0  0  0  0  0  0  0  0  0  0
    6.0564  -10.8054    0.0000 C   0  0  0  0  0  0  0  0  0  0  0  0
    5.2359  -10.8916    0.0000 C   0  0  0  0  0  0  0  0  0  0  0  0
    4.7510  -10.2242    0.0000 C   0  0  0  0  0  0  0  0  0  0  0  0
    3.9305  -10.3104    0.0000 F   0  0  0  0  0  0  0  0  0  0  0  0
    2.4757   -8.3081    0.0000 C   0  0  0  0  0  0  0  0  0  0  0  0
    1.9908   -7.6407    0.0000 C   0  0  0  0  0  0  0  0  0  0  0  0
    1.1703   -7.7269    0.0000 F   0  0  0  0  0  0  0  0  0  0  0  0
    1.0164   -6.2195    0.0000 C   0  0  0  0  0  0  0  0  0  0  0  0
    0.5315   -6.8870    0.0000 O   0  0  0  0  0  0  0  0  0  0  0  0
    0.7615   -5.4349    0.0000 N   0  0  0  0  0  0  0  0  0  0  0  0
   -0.0231   -5.1800    0.0000 C   0  0  0  0  0  0  0  0  0  0  0  0
  1  2  1  0  0  0  0
  2  3  1  0  0  0  0
  3  4  4  0  0  0  0
  4  5  4  0  0  0  0
  5  6  1  0  0  0  0
  6  7  4  0  0  0  0
  7  8  4  0  0  0  0
  8  9  1  0  0  0  0
  9 10  1  0  0  0  0
 10 11  1  0  0  0  0
 10 12  1  0  0  0  0
 12 13  4  0  0  0  0
 13 14  4  0  0  0  0
 14 15  4  0  0  0  0
 15 16  4  0  0  0  0
 16 17  4  0  0  0  0
 12 17  4  0  0  0  0
  8 18  4  0  0  0  0
 18 19  1  0  0  0  0
 19 20  2  0  0  0  0
 19 21  1  0  0  0  0
 21 22  1  0  0  0  0
 22 23  4  0  0  0  0
 23 24  1  0  0  0  0
 23 25  4  0  0  0  0
 25 26  4  0  0  0  0
 26 27  4  0  0  0  0
 27 28  4  0  0  0  0
 22 28  4  0  0  0  0
 28 29  1  0  0  0  0
 18 30  4  0  0  0  0
 30 31  4  0  0  0  0
  6 31  4  0  0  0  0
 31 32  1  0  0  0  0
  5 33  4  0  0  0  0
 33 34  2  0  0  0  0
 33 35  4  0  0  0  0
  3 35  4  0  0  0  0
 35 36  1  0  0  0  0
M  END
> <IC50(uM)>
0.013

> <Outcome>
1.0

> <BindingDB ID>
1098688; 972534

> <BindingDB MonomerID>
470409

> <BindingDB Ligand Name>
4-(3-ethyl-4-methyl-5-oxo-4,5-dihydro-1H-1,2,4-triazol-1-yl)-5-fluoro-N-(2-fluoro-6-methyl-phenyl)-2-[(1S)-1-phenylethoxy]benzamide::US10815215, Example 68::US11130745, Example 68; 4-(3-ethyl-4-methyl-5-oxo-4,5-dihydro-1H-1,2,4-triazol-1-yl)-5-fluoro-N-(2-fluoro-6-methyl-phenyl)-2-[(1S)-1-phenylethoxy]benzamide::US10815215, Example 68

> <Curation/DataSource>
US Patent

> <Article DOI>
?

> <PMID>
?

> <Patent Number>
US11130745; US10815215

> <Authors>
Gradl, SN; Nguyen, D; Eis, K; Gunther, J; Stellfeld, T; Janzer, A; Christian, S; Muller, T; Sheikh, SE; Sykes, DB; Ferrara, SJ; Krober, M; Merz, C; Niehues, M; Schafer, M; Zimmermann, K; Nising, CF; Gradl, SN; Nguyen, D; Eis, K; Gunther, J; Stellfeld, T; Janzer, A; Christian, S; Muller, T; Sheikh, SE; Zhou, HJ; Zhao, C; Sykes, DB; Ferrara, SJ; Liu, K; Krober, M; Merz, C; Niehues, M; Schafer, M; Zimmermann, K; Nising, CF

> <Link to Ligand in BindingDB>
http://www.bindingdb.org/bind/chemsearch/marvin/MolStructure.jsp?monomerid=470409

> <Link to Ligand-Target Pair in BindingDB>
http://www.bindingdb.org/jsp/dbsearch/PrimarySearch_ki.jsp?energyterm=kJ/mole&tag=r21&monomerid=470409&enzyme=Dihydroorotate+dehydrogenase&column=ki&startPg=0&Increment=50&submit=Search

> <PubChem CID>
134469805

> <PubChem SID>
441609586

$$$$

  Mrv2115 07222212352D          

 25 27  0  0  0  0            999 V2000
    2.1434   -2.8875    0.0000 C   0  0  0  0  0  0  0  0  0  0  0  0
    2.1434   -3.7125    0.0000 C   0  0  0  0  0  0  0  0  0  0  0  0
    1.4289   -4.1250    0.0000 C   0  0  0  0  0  0  0  0  0  0  0  0
    1.4289   -4.9500    0.0000 C   0  0  0  0  0  0  0  0  0  0  0  0
    2.1434   -5.3625    0.0000 C   0  0  0  0  0  0  0  0  0  0  0  0
    2.1434   -6.1875    0.0000 N   0  0  0  0  0  0  0  0  0  0  0  0
    1.4289   -6.6000    0.0000 C   0  0  0  0  0  0  0  0  0  0  0  0
    1.4289   -7.4250    0.0000 C   0  0  0  0  0  0  0  0  0  0  0  0
    0.7145   -7.8375    0.0000 C   0  0  0  0  0  0  0  0  0  0  0  0
    0.0000   -7.4250    0.0000 C   0  0  0  0  0  0  0  0  0  0  0  0
   -0.7145   -7.8375    0.0000 C   0  0  0  0  0  0  0  0  0  0  0  0
   -0.7145   -8.6625    0.0000 C   0  0  0  0  0  0  0  0  0  0  0  0
    0.0000   -9.0750    0.0000 F   0  0  0  0  0  0  0  0  0  0  0  0
   -1.4289   -9.0750    0.0000 C   0  0  0  0  0  0  0  0  0  0  0  0
   -2.1434   -8.6625    0.0000 C   0  0  0  0  0  0  0  0  0  0  0  0
   -2.1434   -7.8375    0.0000 C   0  0  0  0  0  0  0  0  0  0  0  0
   -1.4289   -7.4250    0.0000 C   0  0  0  0  0  0  0  0  0  0  0  0
   -1.4289   -6.6000    0.0000 F   0  0  0  0  0  0  0  0  0  0  0  0
    0.0000   -6.6000    0.0000 N   0  0  0  0  0  0  0  0  0  0  0  0
    0.7145   -6.1875    0.0000 C   0  0  0  0  0  0  0  0  0  0  0  0
    2.8579   -4.9500    0.0000 C   0  0  0  0  0  0  0  0  0  0  0  0
    3.5724   -5.3625    0.0000 C   0  0  0  0  0  0  0  0  0  0  0  0
    4.2868   -4.9500    0.0000 O   0  0  0  0  0  0  0  0  0  0  0  0
    3.5724   -6.1875    0.0000 O   0  0  0  0  0  0  0  0  0  0  0  0
    2.8579   -4.1250    0.0000 C   0  0  0  0  0  0  0  0  0  0  0  0
  1  2  1  0  0  0  0
  2  3  4  0  0  0  0
  3  4  4  0  0  0  0
  4  5  4  0  0  0  0
  5  6  1  0  0  0  0
  6  7  1  0  0  0  0
  7  8  4  0  0  0  0
  8  9  4  0  0  0  0
  9 10  4  0  0  0  0
 10 11  1  0  0  0  0
 11 12  4  0  0  0  0
 12 13  1  0  0  0  0
 12 14  4  0  0  0  0
 14 15  4  0  0  0  0
 15 16  4  0  0  0  0
 16 17  4  0  0  0  0
 11 17  4  0  0  0  0
 17 18  1  0  0  0  0
 10 19  4  0  0  0  0
 19 20  4  0  0  0  0
  7 20  4  0  0  0  0
  5 21  4  0  0  0  0
 21 22  1  0  0  0  0
 22 23  2  0  0  0  0
 22 24  1  0  0  0  0
 21 25  4  0  0  0  0
  2 25  4  0  0  0  0
M  END
> <IC50(uM)>
0.019

> <Outcome>
1.0

> <BindingDB ID>
220017

> <BindingDB MonomerID>
102487

> <BindingDB Ligand Name>
US8536165, 91

> <Curation/DataSource>
US Patent

> <Article DOI>
?

> <PMID>
?

> <Patent Number>
US8536165

> <Authors>
Castro Palomino Laria, JC; Terricabras Belart, E; Erra Sola, M; Navarro Romero, E; Fonquerna Pou, S; Cardus Figueras, A; Lozoya Toribio, ME

> <Link to Ligand in BindingDB>
http://www.bindingdb.org/bind/chemsearch/marvin/MolStructure.jsp?monomerid=102487

> <Link to Ligand-Target Pair in BindingDB>
http://www.bindingdb.org/jsp/dbsearch/PrimarySearch_ki.jsp?energyterm=kJ/mole&tag=r21&monomerid=102487&enzyme=Dihydroorotate+dehydrogenase&column=ki&startPg=0&Increment=50&submit=Search

> <PubChem CID>
25188384

> <PubChem SID>
172097778

$$$$

  Mrv2115 07222212352D          

 27 30  0  0  0  0            999 V2000
    2.1434   -2.8875    0.0000 O   0  0  0  0  0  0  0  0  0  0  0  0
    1.4289   -2.4750    0.0000 C   0  0  0  0  0  0  0  0  0  0  0  0
    0.7145   -2.8875    0.0000 O   0  0  0  0  0  0  0  0  0  0  0  0
    1.4289   -1.6500    0.0000 C   0  0  0  0  0  0  0  0  0  0  0  0
    0.7145   -1.2375    0.0000 C   0  0  0  0  0  0  0  0  0  0  0  0
    0.0000   -1.6500    0.0000 O   0  0  0  0  0  0  0  0  0  0  0  0
    0.7145   -0.4125    0.0000 C   0  0  0  0  0  0  0  0  0  0  0  0
    0.0000    0.0000    0.0000 C   0  0  0  0  0  0  0  0  0  0  0  0
   -0.7145   -0.4125    0.0000 C   0  0  0  0  0  0  0  0  0  0  0  0
   -1.4289    0.0000    0.0000 C   0  0  0  0  0  0  0  0  0  0  0  0
   -1.4289    0.8250    0.0000 C   0  0  0  0  0  0  0  0  0  0  0  0
   -2.1434    1.2375    0.0000 O   0  0  0  0  0  0  0  0  0  0  0  0
   -2.1434    2.0625    0.0000 C   0  0  0  0  0  0  0  0  0  0  0  0
   -2.8579    2.4750    0.0000 C   0  0  0  0  0  0  0  0  0  0  0  0
   -2.8579    3.3000    0.0000 C   0  0  0  0  0  0  0  0  0  0  0  0
   -2.1434    3.7125    0.0000 C   0  0  0  0  0  0  0  0  0  0  0  0
   -1.4289    3.3000    0.0000 C   0  0  0  0  0  0  0  0  0  0  0  0
   -1.4289    2.4750    0.0000 C   0  0  0  0  0  0  0  0  0  0  0  0
   -0.7145    1.2375    0.0000 C   0  0  0  0  0  0  0  0  0  0  0  0
    0.0000    0.8250    0.0000 C   0  0  0  0  0  0  0  0  0  0  0  0
    1.4289    0.0000    0.0000 N   0  0  0  0  0  0  0  0  0  0  0  0
    2.1434   -0.4125    0.0000 C   0  0  0  0  0  0  0  0  0  0  0  0
    2.8579    0.0000    0.0000 C   0  0  0  0  0  0  0  0  0  0  0  0
    3.5724   -0.4125    0.0000 C   0  0  0  0  0  0  0  0  0  0  0  0
    3.5724   -1.2375    0.0000 C   0  0  0  0  0  0  0  0  0  0  0  0
    2.8579   -1.6500    0.0000 C   0  0  0  0  0  0  0  0  0  0  0  0
    2.1434   -1.2375    0.0000 C   0  0  0  0  0  0  0  0  0  0  0  0
  1  2  2  0  0  0  0
  2  3  1  0  0  0  0
  2  4  1  0  0  0  0
  4  5  4  0  0  0  0
  5  6  1  0  0  0  0
  5  7  4  0  0  0  0
  7  8  1  0  0  0  0
  8  9  4  0  0  0  0
  9 10  4  0  0  0  0
 10 11  4  0  0  0  0
 11 12  1  0  0  0  0
 12 13  1  0  0  0  0
 13 14  4  0  0  0  0
 14 15  4  0  0  0  0
 15 16  4  0  0  0  0
 16 17  4  0  0  0  0
 17 18  4  0  0  0  0
 13 18  4  0  0  0  0
 11 19  4  0  0  0  0
 19 20  4  0  0  0  0
  8 20  4  0  0  0  0
  7 21  4  0  0  0  0
 21 22  4  0  0  0  0
 22 23  4  0  0  0  0
 23 24  4  0  0  0  0
 24 25  4  0  0  0  0
 25 26  4  0  0  0  0
 26 27  4  0  0  0  0
  4 27  4  0  0  0  0
 22 27  4  0  0  0  0
M  END
> <IC50(uM)>
0.007

> <Outcome>
1.0

> <BindingDB ID>
50841864

> <BindingDB MonomerID>
50201905

> <BindingDB Ligand Name>
3-hydroxy-2-(4-phenoxyphenyl)quinoline-4-carboxylic acid::CHEMBL218169

> <Curation/DataSource>
ChEMBL

> <Article DOI>
10.1021/jm0602256

> <PMID>
17201408

> <Patent Number>
?

> <Authors>
Kaila, N; Janz, K; DeBernardo, S; Bedard, PW; Camphausen, RT; Tam, S; Tsao, DH; Keith, JC; Nickerson-Nutter, C; Shilling, A; Young-Sciame, R; Wang, Q

> <Link to Ligand in BindingDB>
http://www.bindingdb.org/bind/chemsearch/marvin/MolStructure.jsp?monomerid=50201905

> <Link to Ligand-Target Pair in BindingDB>
http://www.bindingdb.org/jsp/dbsearch/PrimarySearch_ki.jsp?energyterm=kJ/mole&tag=r21&monomerid=50201905&enzyme=Dihydroorotate+dehydrogenase&column=ki&startPg=0&Increment=50&submit=Search

> <PubChem CID>
14498175

> <PubChem SID>
104081556

$$$$

  Mrv2115 07222212352D          

 27 30  0  0  0  0            999 V2000
    0.0000   -1.6500    0.0000 C   0  0  0  0  0  0  0  0  0  0  0  0
    0.7145   -1.2375    0.0000 C   0  0  0  0  0  0  0  0  0  0  0  0
    0.7145   -0.4125    0.0000 C   0  0  0  0  0  0  0  0  0  0  0  0
    0.0000    0.0000    0.0000 C   0  0  0  0  0  0  0  0  0  0  0  0
   -0.7145   -0.4125    0.0000 C   0  0  0  0  0  0  0  0  0  0  0  0
   -1.4289    0.0000    0.0000 C   0  0  0  0  0  0  0  0  0  0  0  0
   -1.4289    0.8250    0.0000 C   0  0  0  0  0  0  0  0  0  0  0  0
   -2.1434    1.2375    0.0000 C   0  0  0  0  0  0  0  0  0  0  0  0
   -2.8579    0.8250    0.0000 C   0  0  0  0  0  0  0  0  0  0  0  0
   -3.5724    1.2375    0.0000 C   0  0  0  0  0  0  0  0  0  0  0  0
   -3.5724    2.0625    0.0000 C   0  0  0  0  0  0  0  0  0  0  0  0
   -2.8579    2.4750    0.0000 C   0  0  0  0  0  0  0  0  0  0  0  0
   -2.1434    2.0625    0.0000 C   0  0  0  0  0  0  0  0  0  0  0  0
   -1.4289    2.4750    0.0000 F   0  0  0  0  0  0  0  0  0  0  0  0
   -0.7145    1.2375    0.0000 C   0  0  0  0  0  0  0  0  0  0  0  0
    0.0000    0.8250    0.0000 C   0  0  0  0  0  0  0  0  0  0  0  0
    1.4289    0.0000    0.0000 N   0  0  0  0  0  0  0  0  0  0  0  0
    2.1434   -0.4125    0.0000 C   0  0  0  0  0  0  0  0  0  0  0  0
    2.8579    0.0000    0.0000 C   0  0  0  0  0  0  0  0  0  0  0  0
    3.5724   -0.4125    0.0000 C   0  0  0  0  0  0  0  0  0  0  0  0
    3.5724   -1.2375    0.0000 C   0  0  0  0  0  0  0  0  0  0  0  0
    4.2868   -1.6500    0.0000 F   0  0  0  0  0  0  0  0  0  0  0  0
    2.8579   -1.6500    0.0000 C   0  0  0  0  0  0  0  0  0  0  0  0
    2.1434   -1.2375    0.0000 C   0  0  0  0  0  0  0  0  0  0  0  0
    1.4289   -1.6500    0.0000 C   0  0  0  0  0  0  0  0  0  0  0  0
    1.4289   -2.4750    0.0000 C   0  0  0  0  0  0  0  0  0  0  0  0
    0.7145   -2.8875    0.0000 O   0  0  0  0  0  0  0  0  0  0  0  0
  1  2  1  0  0  0  0
  2  3  4  0  0  0  0
  3  4  1  0  0  0  0
  4  5  4  0  0  0  0
  5  6  4  0  0  0  0
  6  7  4  0  0  0  0
  7  8  1  0  0  0  0
  8  9  4  0  0  0  0
  9 10  4  0  0  0  0
 10 11  4  0  0  0  0
 11 12  4  0  0  0  0
 12 13  4  0  0  0  0
  8 13  4  0  0  0  0
 13 14  1  0  0  0  0
  7 15  4  0  0  0  0
 15 16  4  0  0  0  0
  4 16  4  0  0  0  0
  3 17  4  0  0  0  0
 17 18  4  0  0  0  0
 18 19  4  0  0  0  0
 19 20  4  0  0  0  0
 20 21  4  0  0  0  0
 21 22  1  0  0  0  0
 21 23  4  0  0  0  0
 23 24  4  0  0  0  0
 18 24  4  0  0  0  0
 24 25  4  0  0  0  0
  2 25  4  0  0  0  0
 25 26  1  0  0  0  0
 26 27  1  0  0  0  0
M  END
> <IC50(uM)>
0.166

> <Outcome>
1.0

> <BindingDB ID>
51370186

> <BindingDB MonomerID>
50554015

> <BindingDB Ligand Name>
CHEMBL4799525

> <Curation/DataSource>
ChEMBL

> <Article DOI>
?

> <PMID>
33007394

> <Patent Number>
?

> <Authors>
DeRatt, LG; Christine Pietsch, E; Tanner, A; Shaffer, P; Jacoby, E; Wang, W; Kazmi, F; Zhang, X; Attar, RM; Edwards, JP; Kuduk, SD

> <Link to Ligand in BindingDB>
http://www.bindingdb.org/bind/chemsearch/marvin/MolStructure.jsp?monomerid=50554015

> <Link to Ligand-Target Pair in BindingDB>
http://www.bindingdb.org/jsp/dbsearch/PrimarySearch_ki.jsp?energyterm=kJ/mole&tag=r21&monomerid=50554015&enzyme=Dihydroorotate+dehydrogenase&column=ki&startPg=0&Increment=50&submit=Search

> <PubChem CID>
10338613

> <PubChem SID>
461692783

$$$$

  Mrv2115 07222212352D          

 25 27  0  0  0  0            999 V2000
   -0.7145    1.2375    0.0000 C   0  0  0  0  0  0  0  0  0  0  0  0
    0.0000    0.8250    0.0000 C   0  0  0  0  0  0  0  0  0  0  0  0
    0.0000   -0.0000    0.0000 O   0  0  0  0  0  0  0  0  0  0  0  0
    0.7145   -0.4125    0.0000 C   0  0  0  0  0  0  0  0  0  0  0  0
    1.4289   -0.0000    0.0000 O   0  0  0  0  0  0  0  0  0  0  0  0
    0.7145   -1.2375    0.0000 C   0  0  0  0  0  0  0  0  0  0  0  0
    1.3819   -1.7224    0.0000 S   0  0  0  0  0  0  0  0  0  0  0  0
    1.1270   -2.5070    0.0000 C   0  0  0  0  0  0  0  0  0  0  0  0
    1.6119   -3.1745    0.0000 N   0  0  0  0  0  0  0  0  0  0  0  0
    1.2763   -3.9282    0.0000 C   0  0  0  0  0  0  0  0  0  0  0  0
    1.7613   -4.5956    0.0000 C   0  0  0  0  0  0  0  0  0  0  0  0
    1.4257   -5.3493    0.0000 C   0  0  0  0  0  0  0  0  0  0  0  0
    0.6052   -5.4355    0.0000 C   0  0  0  0  0  0  0  0  0  0  0  0
    0.2697   -6.1892    0.0000 C   0  0  0  0  0  0  0  0  0  0  0  0
    0.1203   -4.7681    0.0000 C   0  0  0  0  0  0  0  0  0  0  0  0
   -0.7002   -4.8543    0.0000 F   0  0  0  0  0  0  0  0  0  0  0  0
    0.4559   -4.0144    0.0000 C   0  0  0  0  0  0  0  0  0  0  0  0
    0.3020   -2.5070    0.0000 N   0  0  0  0  0  0  0  0  0  0  0  0
    0.0470   -1.7224    0.0000 C   0  0  0  0  0  0  0  0  0  0  0  0
   -0.7376   -1.4675    0.0000 C   0  0  0  0  0  0  0  0  0  0  0  0
   -1.3507   -2.0195    0.0000 C   0  0  0  0  0  0  0  0  0  0  0  0
   -2.1353   -1.7646    0.0000 C   0  0  0  0  0  0  0  0  0  0  0  0
   -2.3068   -0.9576    0.0000 C   0  0  0  0  0  0  0  0  0  0  0  0
   -1.6937   -0.4056    0.0000 C   0  0  0  0  0  0  0  0  0  0  0  0
   -0.9091   -0.6605    0.0000 C   0  0  0  0  0  0  0  0  0  0  0  0
  1  2  1  0  0  0  0
  2  3  1  0  0  0  0
  3  4  1  0  0  0  0
  4  5  2  0  0  0  0
  4  6  1  0  0  0  0
  6  7  4  0  0  0  0
  7  8  4  0  0  0  0
  8  9  1  0  0  0  0
  9 10  1  0  0  0  0
 10 11  4  0  0  0  0
 11 12  4  0  0  0  0
 12 13  4  0  0  0  0
 13 14  1  0  0  0  0
 13 15  4  0  0  0  0
 15 16  1  0  0  0  0
 15 17  4  0  0  0  0
 10 17  4  0  0  0  0
  8 18  4  0  0  0  0
 18 19  4  0  0  0  0
  6 19  4  0  0  0  0
 19 20  1  0  0  0  0
 20 21  4  0  0  0  0
 21 22  4  0  0  0  0
 22 23  4  0  0  0  0
 23 24  4  0  0  0  0
 24 25  4  0  0  0  0
 20 25  4  0  0  0  0
M  END
> <IC50(uM)>
0.049

> <Outcome>
1.0

> <BindingDB ID>
50312270

> <BindingDB MonomerID>
50071623

> <BindingDB Ligand Name>
CHEMBL3410595

> <Curation/DataSource>
ChEMBL

> <Article DOI>
10.1021/jm501127s

> <PMID>
25580811

> <Patent Number>
?

> <Authors>
Zhu, J; Han, L; Diao, Y; Ren, X; Xu, M; Xu, L; Li, S; Li, Q; Dong, D; Huang, J; Liu, X; Zhao, Z; Wang, R; Zhu, L; Xu, Y; Qian, X; Li, H

> <Link to Ligand in BindingDB>
http://www.bindingdb.org/bind/chemsearch/marvin/MolStructure.jsp?monomerid=50071623

> <Link to Ligand-Target Pair in BindingDB>
http://www.bindingdb.org/jsp/dbsearch/PrimarySearch_ki.jsp?energyterm=kJ/mole&tag=r21&monomerid=50071623&enzyme=Dihydroorotate+dehydrogenase&column=ki&startPg=0&Increment=50&submit=Search

> <PubChem CID>
118732510

> <PubChem SID>
313072555

$$$$

  Mrv2115 07222212352D          

 29 32  0  0  0  0            999 V2000
    4.0668    2.3479    0.0000 C   0  0  0  0  0  0  0  0  0  0  0  0
    3.3523    1.9354    0.0000 C   0  0  0  0  0  0  0  0  0  0  0  0
    3.3523    1.1104    0.0000 C   0  0  0  0  0  0  0  0  0  0  0  0
    2.6378    0.6979    0.0000 C   0  0  0  0  0  0  0  0  0  0  0  0
    2.6378   -0.1271    0.0000 C   0  0  0  0  0  0  0  0  0  0  0  0
    1.9233   -0.5396    0.0000 O   0  0  0  0  0  0  0  0  0  0  0  0
    3.3523   -0.5396    0.0000 O   0  0  0  0  0  0  0  0  0  0  0  0
    1.9233    1.1104    0.0000 C   0  0  0  0  0  0  0  0  0  0  0  0
    1.1387    0.8555    0.0000 N   0  0  0  0  0  0  0  0  0  0  0  0
    0.6538    1.5229    0.0000 C   0  0  0  0  0  0  0  0  0  0  0  0
   -0.1712    1.5229    0.0000 C   0  0  0  0  0  0  0  0  0  0  0  0
   -0.5837    0.8085    0.0000 C   0  0  0  0  0  0  0  0  0  0  0  0
   -1.4087    0.8085    0.0000 C   0  0  0  0  0  0  0  0  0  0  0  0
   -1.8212    1.5229    0.0000 C   0  0  0  0  0  0  0  0  0  0  0  0
   -2.6462    1.5229    0.0000 C   0  0  0  0  0  0  0  0  0  0  0  0
   -3.0587    0.8085    0.0000 C   0  0  0  0  0  0  0  0  0  0  0  0
   -3.8837    0.8085    0.0000 C   0  0  0  0  0  0  0  0  0  0  0  0
   -4.2962    1.5229    0.0000 C   0  0  0  0  0  0  0  0  0  0  0  0
   -5.1212    1.5229    0.0000 O   0  0  0  0  0  0  0  0  0  0  0  0
   -5.5337    0.8085    0.0000 C   0  0  0  0  0  0  0  0  0  0  0  0
   -6.3587    0.8085    0.0000 C   0  0  0  0  0  0  0  0  0  0  0  0
   -6.7712    0.0940    0.0000 O   0  0  0  0  0  0  0  0  0  0  0  0
   -3.8837    2.2374    0.0000 C   0  0  0  0  0  0  0  0  0  0  0  0
   -3.0587    2.2374    0.0000 C   0  0  0  0  0  0  0  0  0  0  0  0
   -1.4087    2.2374    0.0000 C   0  0  0  0  0  0  0  0  0  0  0  0
   -0.5837    2.2374    0.0000 C   0  0  0  0  0  0  0  0  0  0  0  0
    1.1387    2.1904    0.0000 N   0  0  0  0  0  0  0  0  0  0  0  0
    1.9233    1.9354    0.0000 C   0  0  0  0  0  0  0  0  0  0  0  0
    2.6378    2.3479    0.0000 C   0  0  0  0  0  0  0  0  0  0  0  0
  1  2  1  0  0  0  0
  2  3  4  0  0  0  0
  3  4  4  0  0  0  0
  4  5  1  0  0  0  0
  5  6  2  0  0  0  0
  5  7  1  0  0  0  0
  4  8  4  0  0  0  0
  8  9  4  0  0  0  0
  9 10  4  0  0  0  0
 10 11  1  0  0  0  0
 11 12  4  0  0  0  0
 12 13  4  0  0  0  0
 13 14  4  0  0  0  0
 14 15  1  0  0  0  0
 15 16  4  0  0  0  0
 16 17  4  0  0  0  0
 17 18  4  0  0  0  0
 18 19  1  0  0  0  0
 19 20  1  0  0  0  0
 20 21  1  0  0  0  0
 21 22  1  0  0  0  0
 18 23  4  0  0  0  0
 23 24  4  0  0  0  0
 15 24  4  0  0  0  0
 14 25  4  0  0  0  0
 25 26  4  0  0  0  0
 11 26  4  0  0  0  0
 10 27  4  0  0  0  0
 27 28  4  0  0  0  0
  8 28  4  0  0  0  0
 28 29  4  0  0  0  0
  2 29  4  0  0  0  0
M  STY  1   1 DAT
M  SAL   1  1   9
M  SDT   1 MRV_IMPLICIT_H                                        
M  SDD   1     0.5304   -0.4125    DR    ALL  0       0  
M  SED   1 IMPL_H1
M  END
> <IC50(uM)>
3.1

> <Outcome>
0.0

> <BindingDB ID>
297801

> <BindingDB MonomerID>
155457

> <BindingDB Ligand Name>
US9006454, I99

> <Curation/DataSource>
US Patent

> <Article DOI>
?

> <PMID>
?

> <Patent Number>
US9006454

> <Authors>
Thunuguntla, SS; Subramanya, H; Kunnam, SR; Sanivaru Vijay, SR; Bingi, C; Kusanur, R; Schwarz, M; Arlt, M

> <Link to Ligand in BindingDB>
http://www.bindingdb.org/bind/chemsearch/marvin/MolStructure.jsp?monomerid=155457

> <Link to Ligand-Target Pair in BindingDB>
http://www.bindingdb.org/jsp/dbsearch/PrimarySearch_ki.jsp?energyterm=kJ/mole&tag=r21&monomerid=155457&enzyme=Dihydroorotate+dehydrogenase&column=ki&startPg=0&Increment=50&submit=Search

> <PubChem CID>
68083600

> <PubChem SID>
253658394

$$$$

  Mrv2115 07222212352D          

 37 41  0  0  0  0            999 V2000
   -5.1659   -2.8414    0.0000 C   0  0  0  0  0  0  0  0  0  0  0  0
   -5.5784   -2.1269    0.0000 C   0  0  0  0  0  0  0  0  0  0  0  0
   -6.4034   -2.1269    0.0000 C   0  0  0  0  0  0  0  0  0  0  0  0
   -6.8159   -1.4124    0.0000 C   0  0  0  0  0  0  0  0  0  0  0  0
   -6.4034   -0.6979    0.0000 C   0  0  0  0  0  0  0  0  0  0  0  0
   -5.5784   -0.6979    0.0000 C   0  0  0  0  0  0  0  0  0  0  0  0
   -5.1659    0.0165    0.0000 F   0  0  0  0  0  0  0  0  0  0  0  0
   -5.1659   -1.4124    0.0000 C   0  0  0  0  0  0  0  0  0  0  0  0
   -4.3409   -1.4124    0.0000 N   0  0  0  0  0  0  0  0  0  0  0  0
   -3.9284   -0.6979    0.0000 C   0  0  0  0  0  0  0  0  0  0  0  0
   -4.3409    0.0165    0.0000 O   0  0  0  0  0  0  0  0  0  0  0  0
   -3.1034   -0.6979    0.0000 C   0  0  0  0  0  0  0  0  0  0  0  0
   -2.6909    0.0165    0.0000 C   0  0  0  0  0  0  0  0  0  0  0  0
   -1.8659    0.0165    0.0000 C   0  0  0  0  0  0  0  0  0  0  0  0
   -1.4534    0.7310    0.0000 F   0  0  0  0  0  0  0  0  0  0  0  0
   -1.4534   -0.6979    0.0000 C   0  0  0  0  0  0  0  0  0  0  0  0
   -0.6284   -0.6979    0.0000 N   0  0  0  0  0  0  0  0  0  0  0  0
   -0.1435   -1.3654    0.0000 N   0  0  0  0  0  0  0  0  0  0  0  0
    0.6411   -1.1104    0.0000 C   0  0  0  0  0  0  0  0  0  0  0  0
    0.6411   -0.2854    0.0000 N   0  0  0  0  0  0  0  0  0  0  0  0
   -0.1435   -0.0305    0.0000 C   0  0  0  0  0  0  0  0  0  0  0  0
   -0.3984    0.7541    0.0000 O   0  0  0  0  0  0  0  0  0  0  0  0
    1.3556    0.1271    0.0000 C   0  0  0  0  0  0  0  0  0  0  0  0
    2.0701   -0.2854    0.0000 C   0  0  0  0  0  0  0  0  0  0  0  0
    2.0701   -1.1104    0.0000 C   0  0  0  0  0  0  0  0  0  0  0  0
    1.3556   -1.5229    0.0000 C   0  0  0  0  0  0  0  0  0  0  0  0
   -1.8659   -1.4124    0.0000 C   0  0  0  0  0  0  0  0  0  0  0  0
   -2.6909   -1.4124    0.0000 C   0  0  0  0  0  0  0  0  0  0  0  0
   -3.1034   -2.1269    0.0000 O   0  0  0  0  0  0  0  0  0  0  0  0
   -2.6909   -2.8414    0.0000 C   0  0  0  0  0  0  0  0  0  0  0  0
   -1.8659   -2.8414    0.0000 C   0  0  0  0  0  0  0  0  0  0  0  0
   -3.1034   -3.5558    0.0000 C   0  0  0  0  0  0  0  0  0  0  0  0
   -2.6909   -4.2703    0.0000 C   0  0  0  0  0  0  0  0  0  0  0  0
   -3.1034   -4.9848    0.0000 C   0  0  0  0  0  0  0  0  0  0  0  0
   -3.9284   -4.9848    0.0000 C   0  0  0  0  0  0  0  0  0  0  0  0
   -4.3409   -4.2703    0.0000 C   0  0  0  0  0  0  0  0  0  0  0  0
   -3.9284   -3.5558    0.0000 C   0  0  0  0  0  0  0  0  0  0  0  0
  1  2  1  0  0  0  0
  2  3  4  0  0  0  0
  3  4  4  0  0  0  0
  4  5  4  0  0  0  0
  5  6  4  0  0  0  0
  6  7  1  0  0  0  0
  6  8  4  0  0  0  0
  2  8  4  0  0  0  0
  8  9  1  0  0  0  0
  9 10  1  0  0  0  0
 10 11  2  0  0  0  0
 10 12  1  0  0  0  0
 12 13  4  0  0  0  0
 13 14  4  0  0  0  0
 14 15  1  0  0  0  0
 14 16  4  0  0  0  0
 16 17  1  0  0  0  0
 17 18  4  0  0  0  0
 18 19  4  0  0  0  0
 19 20  4  0  0  0  0
 20 21  4  0  0  0  0
 17 21  4  0  0  0  0
 21 22  2  0  0  0  0
 20 23  1  0  0  0  0
 23 24  1  0  0  0  0
 24 25  1  0  0  0  0
 25 26  1  0  0  0  0
 19 26  1  0  0  0  0
 16 27  4  0  0  0  0
 27 28  4  0  0  0  0
 12 28  4  0  0  0  0
 28 29  1  0  0  0  0
 29 30  1  0  0  0  0
 30 31  1  0  0  0  0
 30 32  1  0  0  0  0
 32 33  1  0  0  0  0
 33 34  1  0  0  0  0
 34 35  1  0  0  0  0
 35 36  1  0  0  0  0
 36 37  1  0  0  0  0
 32 37  1  0  0  0  0
M  END
> <IC50(uM)>
0.0030624999999999997

> <Outcome>
1.0

> <BindingDB ID>
1020540; 1020539

> <BindingDB MonomerID>
490481

> <BindingDB Ligand Name>
2-[(1S)-1-cyclohexylethoxy]-5-fluoro-N-(2-fluorophenyl)-4-(3-oxo-5,6,7,8-tetrahydro[1,2,4]-triazolo[4,3-a]pyridin-2(3H)-yl)benzamide::US10968216, Example 149

> <Curation/DataSource>
US Patent

> <Article DOI>
?

> <PMID>
?

> <Patent Number>
US10968216

> <Authors>
Gradl, SN; Nguyen, D; Eis, K; Gunther, J; Stellfeld, T; Janzer, A; Christian, S; Mueller, T; Sheikh, SE; Zhou, HJ; Zhao, C; Sykes, DB; Ferrara, SJ; Liu, K; Herbert, SA; Merz, C; Niehues, M; Nising, CF; Schafer, M; Zimmermann, K; Knablein, J; Thede, K; Faupel, T

> <Link to Ligand in BindingDB>
http://www.bindingdb.org/bind/chemsearch/marvin/MolStructure.jsp?monomerid=490481

> <Link to Ligand-Target Pair in BindingDB>
http://www.bindingdb.org/jsp/dbsearch/PrimarySearch_ki.jsp?energyterm=kJ/mole&tag=r21&monomerid=490481&enzyme=Dihydroorotate+dehydrogenase&column=ki&startPg=0&Increment=50&submit=Search

> <PubChem CID>
134474356

> <PubChem SID>
447117208

$$$$

  Mrv2115 07222212352D          

 36 40  0  0  0  0            999 V2000
   -0.2934    3.3000    0.0000 C   0  0  0  0  0  0  0  0  0  0  0  0
    0.4210    3.7125    0.0000 C   0  0  0  0  0  0  0  0  0  0  0  0
    1.1355    3.3000    0.0000 O   0  0  0  0  0  0  0  0  0  0  0  0
    1.8500    3.7125    0.0000 C   0  0  0  0  0  0  0  0  0  0  0  0
    1.8500    4.5375    0.0000 C   0  0  0  0  0  0  0  0  0  0  0  0
    2.5645    4.9500    0.0000 C   0  0  0  0  0  0  0  0  0  0  0  0
    2.5645    5.7750    0.0000 N   0  0  0  0  0  0  0  0  0  0  0  0
    3.2319    6.2599    0.0000 N   0  0  0  0  0  0  0  0  0  0  0  0
    2.9770    7.0445    0.0000 C   0  0  0  0  0  0  0  0  0  0  0  0
    2.1520    7.0445    0.0000 N   0  0  0  0  0  0  0  0  0  0  0  0
    1.8970    6.2599    0.0000 C   0  0  0  0  0  0  0  0  0  0  0  0
    1.1124    6.0050    0.0000 O   0  0  0  0  0  0  0  0  0  0  0  0
    1.7395    7.7590    0.0000 C   0  0  0  0  0  0  0  0  0  0  0  0
    2.1520    8.4735    0.0000 C   0  0  0  0  0  0  0  0  0  0  0  0
    2.9770    8.4735    0.0000 C   0  0  0  0  0  0  0  0  0  0  0  0
    3.3895    7.7590    0.0000 C   0  0  0  0  0  0  0  0  0  0  0  0
    3.2789    4.5375    0.0000 C   0  0  0  0  0  0  0  0  0  0  0  0
    3.9934    4.9500    0.0000 F   0  0  0  0  0  0  0  0  0  0  0  0
    3.2789    3.7125    0.0000 C   0  0  0  0  0  0  0  0  0  0  0  0
    2.5645    3.3000    0.0000 C   0  0  0  0  0  0  0  0  0  0  0  0
    2.5645    2.4750    0.0000 C   0  0  0  0  0  0  0  0  0  0  0  0
    1.8500    2.0625    0.0000 O   0  0  0  0  0  0  0  0  0  0  0  0
    3.2789    2.0625    0.0000 N   0  0  0  0  0  0  0  0  0  0  0  0
    3.2789    1.2375    0.0000 C   0  0  0  0  0  0  0  0  0  0  0  0
    3.9934    0.8250    0.0000 C   0  0  0  0  0  0  0  0  0  0  0  0
    3.9934    0.0000    0.0000 C   0  0  0  0  0  0  0  0  0  0  0  0
    3.2789   -0.4125    0.0000 C   0  0  0  0  0  0  0  0  0  0  0  0
    2.5645    0.0000    0.0000 C   0  0  0  0  0  0  0  0  0  0  0  0
    1.7798   -0.2549    0.0000 C   0  0  0  0  0  0  0  0  0  0  0  0
    1.2949    0.4125    0.0000 N   0  0  0  0  0  0  0  0  0  0  0  0
    1.7798    1.0799    0.0000 N   0  0  0  0  0  0  0  0  0  0  0  0
    2.5645    0.8250    0.0000 C   0  0  0  0  0  0  0  0  0  0  0  0
    0.4210    4.5375    0.0000 C   0  0  0  0  0  0  0  0  0  0  0  0
    1.2460    4.5375    0.0000 F   0  0  0  0  0  0  0  0  0  0  0  0
   -0.4040    4.5375    0.0000 F   0  0  0  0  0  0  0  0  0  0  0  0
    0.4210    5.3625    0.0000 F   0  0  0  0  0  0  0  0  0  0  0  0
  1  2  1  0  0  0  0
  2  3  1  0  0  0  0
  3  4  1  0  0  0  0
  4  5  4  0  0  0  0
  5  6  4  0  0  0  0
  6  7  1  0  0  0  0
  7  8  4  0  0  0  0
  8  9  4  0  0  0  0
  9 10  4  0  0  0  0
 10 11  4  0  0  0  0
  7 11  4  0  0  0  0
 11 12  2  0  0  0  0
 10 13  1  0  0  0  0
 13 14  1  0  0  0  0
 14 15  1  0  0  0  0
 15 16  1  0  0  0  0
  9 16  1  0  0  0  0
  6 17  4  0  0  0  0
 17 18  1  0  0  0  0
 17 19  4  0  0  0  0
 19 20  4  0  0  0  0
  4 20  4  0  0  0  0
 20 21  1  0  0  0  0
 21 22  2  0  0  0  0
 21 23  1  0  0  0  0
 23 24  1  0  0  0  0
 24 25  4  0  0  0  0
 25 26  4  0  0  0  0
 26 27  4  0  0  0  0
 27 28  4  0  0  0  0
 28 29  4  0  0  0  0
 29 30  4  0  0  0  0
 30 31  4  0  0  0  0
 31 32  4  0  0  0  0
 24 32  4  0  0  0  0
 28 32  4  0  0  0  0
  2 33  1  0  0  0  0
 33 34  1  0  0  0  0
 33 35  1  0  0  0  0
 33 36  1  0  0  0  0
M  STY  1   1 DAT
M  SAL   1  1  31
M  SDT   1 MRV_IMPLICIT_H                                        
M  SDD   1     0.5304   -0.4125    DR    ALL  0       0  
M  SED   1 IMPL_H1
M  END
> <IC50(uM)>
2.2

> <Outcome>
0.0

> <BindingDB ID>
1020492

> <BindingDB MonomerID>
490440

> <BindingDB Ligand Name>
5-fluoro-N-(1H-indazol-7-yl)-4-(3-oxo-5,6,7,8-tetrahydro[1,2,4]triazolo[4,3-a]pyridin-2(3H)-yl)-2-{[(2S)-1,1,1-trifluoropropan-2-yl]oxy}benzamide::US10968216, Example 108

> <Curation/DataSource>
US Patent

> <Article DOI>
?

> <PMID>
?

> <Patent Number>
US10968216

> <Authors>
Gradl, SN; Nguyen, D; Eis, K; Gunther, J; Stellfeld, T; Janzer, A; Christian, S; Mueller, T; Sheikh, SE; Zhou, HJ; Zhao, C; Sykes, DB; Ferrara, SJ; Liu, K; Herbert, SA; Merz, C; Niehues, M; Nising, CF; Schafer, M; Zimmermann, K; Knablein, J; Thede, K; Faupel, T

> <Link to Ligand in BindingDB>
http://www.bindingdb.org/bind/chemsearch/marvin/MolStructure.jsp?monomerid=490440

> <Link to Ligand-Target Pair in BindingDB>
http://www.bindingdb.org/jsp/dbsearch/PrimarySearch_ki.jsp?energyterm=kJ/mole&tag=r21&monomerid=490440&enzyme=Dihydroorotate+dehydrogenase&column=ki&startPg=0&Increment=50&submit=Search

> <PubChem CID>
134474351

> <PubChem SID>
447117167

$$$$

  Mrv2115 07222212352D          

 29 31  0  0  0  0            999 V2000
   10.7171    1.2375    0.0000 O   0  0  0  0  0  0  0  0  0  0  0  0
   10.7171    0.4125    0.0000 C   0  0  0  0  0  0  0  0  0  0  0  0
   10.0026    0.0000    0.0000 C   0  0  0  0  0  0  0  0  0  0  0  0
    9.2881    0.4125    0.0000 C   0  0  0  0  0  0  0  0  0  0  0  0
    8.5737    0.0000    0.0000 C   0  0  0  0  0  0  0  0  0  0  0  0
    7.8592    0.4125    0.0000 N   0  0  0  0  0  0  0  0  0  0  0  0
    7.1447    0.0000    0.0000 C   0  0  0  0  0  0  0  0  0  0  0  0
    7.1447   -0.8250    0.0000 O   0  0  0  0  0  0  0  0  0  0  0  0
    6.4302    0.4125    0.0000 C   0  0  0  0  0  0  0  0  0  0  0  0
    5.7158    0.0000    0.0000 C   0  0  0  0  0  0  0  0  0  0  0  0
    5.0013    0.4125    0.0000 C   0  0  0  0  0  0  0  0  0  0  0  0
    5.0013    1.2375    0.0000 C   0  0  0  0  0  0  0  0  0  0  0  0
    4.2868    1.6500    0.0000 C   0  0  0  0  0  0  0  0  0  0  0  0
    3.5724    2.0625    0.0000 F   0  0  0  0  0  0  0  0  0  0  0  0
    3.8743    0.9355    0.0000 F   0  0  0  0  0  0  0  0  0  0  0  0
    4.6993    2.3645    0.0000 F   0  0  0  0  0  0  0  0  0  0  0  0
    5.7158    1.6500    0.0000 C   0  0  0  0  0  0  0  0  0  0  0  0
    6.4302    1.2375    0.0000 C   0  0  0  0  0  0  0  0  0  0  0  0
   11.4315    0.0000    0.0000 N   0  0  0  0  0  0  0  0  0  0  0  0
   12.1460    0.4125    0.0000 C   0  0  0  0  0  0  0  0  0  0  0  0
   12.1460    1.2375    0.0000 C   0  0  0  0  0  0  0  0  0  0  0  0
   12.8605    1.6500    0.0000 C   0  0  0  0  0  0  0  0  0  0  0  0
   13.5749    1.2375    0.0000 C   0  0  0  0  0  0  0  0  0  0  0  0
   13.5749    0.4125    0.0000 C   0  0  0  0  0  0  0  0  0  0  0  0
   14.2894    0.0000    0.0000 C   0  0  0  0  0  0  0  0  0  0  0  0
   14.2894   -0.8250    0.0000 C   0  0  0  0  0  0  0  0  0  0  0  0
   13.5749   -1.2375    0.0000 C   0  0  0  0  0  0  0  0  0  0  0  0
   12.8605   -0.8250    0.0000 C   0  0  0  0  0  0  0  0  0  0  0  0
   12.8605    0.0000    0.0000 C   0  0  0  0  0  0  0  0  0  0  0  0
  1  2  2  0  0  0  0
  2  3  1  0  0  0  0
  3  4  1  0  0  0  0
  4  5  1  0  0  0  0
  5  6  1  0  0  0  0
  6  7  1  0  0  0  0
  7  8  2  0  0  0  0
  7  9  1  0  0  0  0
  9 10  4  0  0  0  0
 10 11  4  0  0  0  0
 11 12  4  0  0  0  0
 12 13  1  0  0  0  0
 13 14  1  0  0  0  0
 13 15  1  0  0  0  0
 13 16  1  0  0  0  0
 12 17  4  0  0  0  0
 17 18  4  0  0  0  0
  9 18  4  0  0  0  0
  2 19  1  0  0  0  0
 19 20  1  0  0  0  0
 20 21  1  0  0  0  0
 21 22  1  0  0  0  0
 22 23  1  0  0  0  0
 23 24  1  0  0  0  0
 24 25  4  0  0  0  0
 25 26  4  0  0  0  0
 26 27  4  0  0  0  0
 27 28  4  0  0  0  0
 28 29  4  0  0  0  0
 24 29  4  0  0  0  0
 20 29  1  0  0  0  0
M  END
> <IC50(uM)>
20.0

> <Outcome>
0.0

> <BindingDB ID>
50527789

> <BindingDB MonomerID>
50201633

> <BindingDB Ligand Name>
CHEMBL3972378

> <Curation/DataSource>
ChEMBL

> <Article DOI>
10.1021/acsmedchemlett.6b00316

> <PMID>
27994748

> <Patent Number>
?

> <Authors>
Lewis, TA; Sykes, DB; Law, JM; Mu??oz, B; Rustiguel, JK; Nonato, MC; Scadden, DT; Schreiber, SL

> <Link to Ligand in BindingDB>
http://www.bindingdb.org/bind/chemsearch/marvin/MolStructure.jsp?monomerid=50201633

> <Link to Ligand-Target Pair in BindingDB>
http://www.bindingdb.org/jsp/dbsearch/PrimarySearch_ki.jsp?energyterm=kJ/mole&tag=r21&monomerid=50201633&enzyme=Dihydroorotate+dehydrogenase&column=ki&startPg=0&Increment=50&submit=Search

> <PubChem CID>
71768298

> <PubChem SID>
375979421

$$$$

  Mrv2115 07222212352D          

 25 27  0  0  0  0            999 V2000
   -2.1434   -1.2375    0.0000 C   0  0  0  0  0  0  0  0  0  0  0  0
   -2.8579   -1.6500    0.0000 O   0  0  0  0  0  0  0  0  0  0  0  0
   -2.8579   -2.4750    0.0000 C   0  0  0  0  0  0  0  0  0  0  0  0
   -2.1434   -2.8875    0.0000 C   0  0  0  0  0  0  0  0  0  0  0  0
   -2.1434   -3.7125    0.0000 C   0  0  0  0  0  0  0  0  0  0  0  0
   -2.8579   -4.1250    0.0000 C   0  0  0  0  0  0  0  0  0  0  0  0
   -3.5724   -3.7125    0.0000 C   0  0  0  0  0  0  0  0  0  0  0  0
   -4.2868   -4.1250    0.0000 C   0  0  0  0  0  0  0  0  0  0  0  0
   -5.0013   -3.7125    0.0000 C   0  0  0  0  0  0  0  0  0  0  0  0
   -5.7158   -4.1250    0.0000 C   0  0  0  0  0  0  0  0  0  0  0  0
   -5.7158   -4.9500    0.0000 C   0  0  0  0  0  0  0  0  0  0  0  0
   -6.4302   -5.3625    0.0000 N   0  0  0  0  0  0  0  0  0  0  0  0
   -6.4302   -6.1875    0.0000 C   0  0  0  0  0  0  0  0  0  0  0  0
   -5.7158   -6.6000    0.0000 N   0  0  0  0  0  0  0  0  0  0  0  0
   -5.7158   -7.4250    0.0000 C   0  0  0  0  0  0  0  0  0  0  0  0
   -6.4302   -7.8375    0.0000 C   0  0  0  0  0  0  0  0  0  0  0  0
   -7.1447   -7.4250    0.0000 C   0  0  0  0  0  0  0  0  0  0  0  0
   -7.1447   -6.6000    0.0000 C   0  0  0  0  0  0  0  0  0  0  0  0
   -7.8592   -6.1875    0.0000 C   0  0  0  0  0  0  0  0  0  0  0  0
   -7.8592   -5.3625    0.0000 O   0  0  0  0  0  0  0  0  0  0  0  0
   -8.5737   -6.6000    0.0000 O   0  0  0  0  0  0  0  0  0  0  0  0
   -5.0013   -5.3625    0.0000 C   0  0  0  0  0  0  0  0  0  0  0  0
   -5.0013   -6.1875    0.0000 Cl  0  0  0  0  0  0  0  0  0  0  0  0
   -4.2868   -4.9500    0.0000 C   0  0  0  0  0  0  0  0  0  0  0  0
   -3.5724   -2.8875    0.0000 C   0  0  0  0  0  0  0  0  0  0  0  0
  1  2  1  0  0  0  0
  2  3  1  0  0  0  0
  3  4  4  0  0  0  0
  4  5  4  0  0  0  0
  5  6  4  0  0  0  0
  6  7  4  0  0  0  0
  7  8  1  0  0  0  0
  8  9  4  0  0  0  0
  9 10  4  0  0  0  0
 10 11  4  0  0  0  0
 11 12  1  0  0  0  0
 12 13  1  0  0  0  0
 13 14  4  0  0  0  0
 14 15  4  0  0  0  0
 15 16  4  0  0  0  0
 16 17  4  0  0  0  0
 17 18  4  0  0  0  0
 13 18  4  0  0  0  0
 18 19  1  0  0  0  0
 19 20  2  0  0  0  0
 19 21  1  0  0  0  0
 11 22  4  0  0  0  0
 22 23  1  0  0  0  0
 22 24  4  0  0  0  0
  8 24  4  0  0  0  0
  7 25  4  0  0  0  0
  3 25  4  0  0  0  0
M  END
> <IC50(uM)>
0.15

> <Outcome>
1.0

> <BindingDB ID>
246902; 51186844

> <BindingDB MonomerID>
119809

> <BindingDB Ligand Name>
US8691852, 13

> <Curation/DataSource>
US Patent; ChEMBL

> <Article DOI>
?; 10.1007/s00044-011-9837-4

> <PMID>
?

> <Patent Number>
US8691852; ?

> <Authors>
Castro Palomino Laria, JC; Erra Sola, M; Lozoya Toribio, ME; Navarro Romero, E; n/a

> <Link to Ligand in BindingDB>
http://www.bindingdb.org/bind/chemsearch/marvin/MolStructure.jsp?monomerid=119809

> <Link to Ligand-Target Pair in BindingDB>
http://www.bindingdb.org/jsp/dbsearch/PrimarySearch_ki.jsp?energyterm=kJ/mole&tag=r21&monomerid=119809&enzyme=Dihydroorotate+dehydrogenase&column=ki&startPg=0&Increment=50&submit=Search

> <PubChem CID>
24987180

> <PubChem SID>
220230603

$$$$

  Mrv2115 07222212352D          

 27 29  0  0  0  0            999 V2000
    1.4289   -0.0000    0.0000 C   0  0  0  0  0  0  0  0  0  0  0  0
    0.7145   -0.4125    0.0000 N   0  0  0  0  0  0  0  0  0  0  0  0
    0.0000    0.0000    0.0000 N   0  0  0  0  0  0  0  0  0  0  0  0
   -0.7145   -0.4125    0.0000 C   0  0  0  0  0  0  0  0  0  0  0  0
   -1.4289    0.0000    0.0000 C   0  0  0  0  0  0  0  0  0  0  0  0
   -2.1434   -0.4125    0.0000 C   0  0  0  0  0  0  0  0  0  0  0  0
   -2.8579    0.0000    0.0000 C   0  0  0  0  0  0  0  0  0  0  0  0
   -3.5724   -0.4125    0.0000 O   0  0  0  0  0  0  0  0  0  0  0  0
   -2.8579    0.8250    0.0000 C   0  0  0  0  0  0  0  0  0  0  0  0
   -3.5724    1.2375    0.0000 F   0  0  0  0  0  0  0  0  0  0  0  0
   -2.1434    1.2375    0.0000 C   0  0  0  0  0  0  0  0  0  0  0  0
   -1.4289    0.8250    0.0000 C   0  0  0  0  0  0  0  0  0  0  0  0
   -0.7145    1.2375    0.0000 C   0  0  0  0  0  0  0  0  0  0  0  0
    0.0000    0.8250    0.0000 O   0  0  0  0  0  0  0  0  0  0  0  0
   -0.7145    2.0625    0.0000 O   0  0  0  0  0  0  0  0  0  0  0  0
    0.7145   -1.2375    0.0000 C   0  0  0  0  0  0  0  0  0  0  0  0
    1.3819   -1.7224    0.0000 N   0  0  0  0  0  0  0  0  0  0  0  0
    1.1270   -2.5070    0.0000 C   0  0  0  0  0  0  0  0  0  0  0  0
    1.6119   -3.1745    0.0000 C   0  0  0  0  0  0  0  0  0  0  0  0
    2.4324   -3.0882    0.0000 C   0  0  0  0  0  0  0  0  0  0  0  0
    2.9173   -3.7557    0.0000 C   0  0  0  0  0  0  0  0  0  0  0  0
    2.5817   -4.5094    0.0000 C   0  0  0  0  0  0  0  0  0  0  0  0
    1.7613   -4.5956    0.0000 C   0  0  0  0  0  0  0  0  0  0  0  0
    1.2763   -3.9282    0.0000 C   0  0  0  0  0  0  0  0  0  0  0  0
    0.4559   -4.0144    0.0000 Cl  0  0  0  0  0  0  0  0  0  0  0  0
    0.3020   -2.5070    0.0000 C   0  0  0  0  0  0  0  0  0  0  0  0
    0.0470   -1.7224    0.0000 S   0  0  0  0  0  0  0  0  0  0  0  0
  1  2  1  0  0  0  0
  2  3  1  0  0  0  0
  3  4  2  0  0  0  0
  4  5  1  0  0  0  0
  5  6  4  0  0  0  0
  6  7  4  0  0  0  0
  7  8  1  0  0  0  0
  7  9  4  0  0  0  0
  9 10  1  0  0  0  0
  9 11  4  0  0  0  0
 11 12  4  0  0  0  0
  5 12  4  0  0  0  0
 12 13  1  0  0  0  0
 13 14  2  0  0  0  0
 13 15  1  0  0  0  0
  2 16  1  0  0  0  0
 16 17  4  0  0  0  0
 17 18  4  0  0  0  0
 18 19  1  0  0  0  0
 19 20  4  0  0  0  0
 20 21  4  0  0  0  0
 21 22  4  0  0  0  0
 22 23  4  0  0  0  0
 23 24  4  0  0  0  0
 19 24  4  0  0  0  0
 24 25  1  0  0  0  0
 18 26  4  0  0  0  0
 26 27  4  0  0  0  0
 16 27  4  0  0  0  0
M  END
> <IC50(uM)>
0.0214

> <Outcome>
1.0

> <BindingDB ID>
1001131

> <BindingDB MonomerID>
482817

> <BindingDB Ligand Name>
US10919869, No.  24

> <Curation/DataSource>
US Patent

> <Article DOI>
?

> <PMID>
?

> <Patent Number>
US10919869

> <Authors>
Li, H; Xu, Y; Wang, R; Zhao, Z; Song, W; Xu, L

> <Link to Ligand in BindingDB>
http://www.bindingdb.org/bind/chemsearch/marvin/MolStructure.jsp?monomerid=482817

> <Link to Ligand-Target Pair in BindingDB>
http://www.bindingdb.org/jsp/dbsearch/PrimarySearch_ki.jsp?energyterm=kJ/mole&tag=r21&monomerid=482817&enzyme=Dihydroorotate+dehydrogenase&column=ki&startPg=0&Increment=50&submit=Search

> <PubChem CID>
132157963

> <PubChem SID>
443551958

$$$$

  Mrv2115 07222212352D          

 28 31  0  0  0  0            999 V2000
   -5.5337   -2.8414    0.0000 C   0  0  0  0  0  0  0  0  0  0  0  0
   -5.1212   -2.1269    0.0000 C   0  0  0  0  0  0  0  0  0  0  0  0
   -5.5337   -1.4124    0.0000 O   0  0  0  0  0  0  0  0  0  0  0  0
   -4.2962   -2.1269    0.0000 N   0  0  0  0  0  0  0  0  0  0  0  0
   -3.8837   -1.4124    0.0000 C   0  0  0  0  0  0  0  0  0  0  0  0
   -4.2962   -0.6979    0.0000 C   0  0  0  0  0  0  0  0  0  0  0  0
   -3.8837    0.0165    0.0000 C   0  0  0  0  0  0  0  0  0  0  0  0
   -3.0587    0.0165    0.0000 C   0  0  0  0  0  0  0  0  0  0  0  0
   -2.6462   -0.6979    0.0000 C   0  0  0  0  0  0  0  0  0  0  0  0
   -1.8212   -0.6979    0.0000 C   0  0  0  0  0  0  0  0  0  0  0  0
   -1.4087    0.0165    0.0000 C   0  0  0  0  0  0  0  0  0  0  0  0
   -0.5837    0.0165    0.0000 C   0  0  0  0  0  0  0  0  0  0  0  0
   -0.1712   -0.6979    0.0000 C   0  0  0  0  0  0  0  0  0  0  0  0
    0.6538   -0.6979    0.0000 C   0  0  0  0  0  0  0  0  0  0  0  0
    1.1387   -0.0305    0.0000 N   0  0  0  0  0  0  0  0  0  0  0  0
    1.9233   -0.2854    0.0000 C   0  0  0  0  0  0  0  0  0  0  0  0
    2.6378    0.1271    0.0000 C   0  0  0  0  0  0  0  0  0  0  0  0
    2.6378    0.9521    0.0000 C   0  0  0  0  0  0  0  0  0  0  0  0
    1.9233    1.3646    0.0000 N   0  0  0  0  0  0  0  0  0  0  0  0
    3.3523    1.3646    0.0000 O   0  0  0  0  0  0  0  0  0  0  0  0
    3.3523   -0.2854    0.0000 C   0  0  0  0  0  0  0  0  0  0  0  0
    3.3523   -1.1104    0.0000 C   0  0  0  0  0  0  0  0  0  0  0  0
    2.6378   -1.5229    0.0000 C   0  0  0  0  0  0  0  0  0  0  0  0
    1.9233   -1.1104    0.0000 C   0  0  0  0  0  0  0  0  0  0  0  0
    1.1387   -1.3654    0.0000 N   0  0  0  0  0  0  0  0  0  0  0  0
   -0.5837   -1.4124    0.0000 C   0  0  0  0  0  0  0  0  0  0  0  0
   -1.4087   -1.4124    0.0000 C   0  0  0  0  0  0  0  0  0  0  0  0
   -3.0587   -1.4124    0.0000 C   0  0  0  0  0  0  0  0  0  0  0  0
  1  2  1  0  0  0  0
  2  3  2  0  0  0  0
  2  4  1  0  0  0  0
  4  5  1  0  0  0  0
  5  6  4  0  0  0  0
  6  7  4  0  0  0  0
  7  8  4  0  0  0  0
  8  9  4  0  0  0  0
  9 10  1  0  0  0  0
 10 11  4  0  0  0  0
 11 12  4  0  0  0  0
 12 13  4  0  0  0  0
 13 14  1  0  0  0  0
 14 15  4  0  0  0  0
 15 16  4  0  0  0  0
 16 17  4  0  0  0  0
 17 18  1  0  0  0  0
 18 19  1  0  0  0  0
 18 20  2  0  0  0  0
 17 21  4  0  0  0  0
 21 22  4  0  0  0  0
 22 23  4  0  0  0  0
 23 24  4  0  0  0  0
 16 24  4  0  0  0  0
 24 25  4  0  0  0  0
 14 25  4  0  0  0  0
 13 26  4  0  0  0  0
 26 27  4  0  0  0  0
 10 27  4  0  0  0  0
  9 28  4  0  0  0  0
  5 28  4  0  0  0  0
M  STY  1   1 DAT
M  SAL   1  1  25
M  SDT   1 MRV_IMPLICIT_H                                        
M  SDD   1     0.5304   -0.4125    DR    ALL  0       0  
M  SED   1 IMPL_H1
M  END
> <IC50(uM)>
42.0

> <Outcome>
0.0

> <BindingDB ID>
50358219

> <BindingDB MonomerID>
50096142

> <BindingDB Ligand Name>
CHEMBL3593985

> <Curation/DataSource>
ChEMBL

> <Article DOI>
10.1016/j.bmc.2015.05.051

> <PMID>
26088338

> <Patent Number>
?

> <Authors>
Abdullah, I; Chee, CF; Lee, YK; Thunuguntla, SS; Satish Reddy, K; Nellore, K; Antony, T; Verma, J; Mun, KW; Othman, S; Subramanya, H; Rahman, NA

> <Link to Ligand in BindingDB>
http://www.bindingdb.org/bind/chemsearch/marvin/MolStructure.jsp?monomerid=50096142

> <Link to Ligand-Target Pair in BindingDB>
http://www.bindingdb.org/jsp/dbsearch/PrimarySearch_ki.jsp?energyterm=kJ/mole&tag=r21&monomerid=50096142&enzyme=Dihydroorotate+dehydrogenase&column=ki&startPg=0&Increment=50&submit=Search

> <PubChem CID>
122182313

> <PubChem SID>
318473795

$$$$

  Mrv2115 07222212352D          

 27 29  0  0  0  0            999 V2000
   -0.7145    1.2375    0.0000 C   0  0  0  0  0  0  0  0  0  0  0  0
    0.0000    0.8250    0.0000 C   0  0  0  0  0  0  0  0  0  0  0  0
    0.0000   -0.0000    0.0000 O   0  0  0  0  0  0  0  0  0  0  0  0
    0.7145   -0.4125    0.0000 C   0  0  0  0  0  0  0  0  0  0  0  0
    1.4289   -0.0000    0.0000 O   0  0  0  0  0  0  0  0  0  0  0  0
    0.7145   -1.2375    0.0000 C   0  0  0  0  0  0  0  0  0  0  0  0
    1.3819   -1.7224    0.0000 S   0  0  0  0  0  0  0  0  0  0  0  0
    1.1270   -2.5070    0.0000 C   0  0  0  0  0  0  0  0  0  0  0  0
    1.6119   -3.1745    0.0000 N   0  0  0  0  0  0  0  0  0  0  0  0
    1.2763   -3.9282    0.0000 C   0  0  0  0  0  0  0  0  0  0  0  0
    1.7613   -4.5956    0.0000 C   0  0  0  0  0  0  0  0  0  0  0  0
    1.4257   -5.3493    0.0000 C   0  0  0  0  0  0  0  0  0  0  0  0
    0.6052   -5.4355    0.0000 C   0  0  0  0  0  0  0  0  0  0  0  0
    0.2697   -6.1892    0.0000 C   0  0  0  0  0  0  0  0  0  0  0  0
   -0.0659   -6.9429    0.0000 F   0  0  0  0  0  0  0  0  0  0  0  0
   -0.4840   -5.8536    0.0000 F   0  0  0  0  0  0  0  0  0  0  0  0
    1.0233   -6.5247    0.0000 F   0  0  0  0  0  0  0  0  0  0  0  0
    0.1203   -4.7681    0.0000 C   0  0  0  0  0  0  0  0  0  0  0  0
    0.4559   -4.0144    0.0000 C   0  0  0  0  0  0  0  0  0  0  0  0
    0.3020   -2.5070    0.0000 N   0  0  0  0  0  0  0  0  0  0  0  0
    0.0470   -1.7224    0.0000 C   0  0  0  0  0  0  0  0  0  0  0  0
   -0.7376   -1.4675    0.0000 C   0  0  0  0  0  0  0  0  0  0  0  0
   -1.3507   -2.0195    0.0000 C   0  0  0  0  0  0  0  0  0  0  0  0
   -2.1353   -1.7646    0.0000 C   0  0  0  0  0  0  0  0  0  0  0  0
   -2.3068   -0.9576    0.0000 C   0  0  0  0  0  0  0  0  0  0  0  0
   -1.6937   -0.4056    0.0000 C   0  0  0  0  0  0  0  0  0  0  0  0
   -0.9091   -0.6605    0.0000 C   0  0  0  0  0  0  0  0  0  0  0  0
  1  2  1  0  0  0  0
  2  3  1  0  0  0  0
  3  4  1  0  0  0  0
  4  5  2  0  0  0  0
  4  6  1  0  0  0  0
  6  7  4  0  0  0  0
  7  8  4  0  0  0  0
  8  9  1  0  0  0  0
  9 10  1  0  0  0  0
 10 11  4  0  0  0  0
 11 12  4  0  0  0  0
 12 13  4  0  0  0  0
 13 14  1  0  0  0  0
 14 15  1  0  0  0  0
 14 16  1  0  0  0  0
 14 17  1  0  0  0  0
 13 18  4  0  0  0  0
 18 19  4  0  0  0  0
 10 19  4  0  0  0  0
  8 20  4  0  0  0  0
 20 21  4  0  0  0  0
  6 21  4  0  0  0  0
 21 22  1  0  0  0  0
 22 23  4  0  0  0  0
 23 24  4  0  0  0  0
 24 25  4  0  0  0  0
 25 26  4  0  0  0  0
 26 27  4  0  0  0  0
 22 27  4  0  0  0  0
M  END
> <IC50(uM)>
0.408

> <Outcome>
1.0

> <BindingDB ID>
50312265

> <BindingDB MonomerID>
50071603

> <BindingDB Ligand Name>
CHEMBL3410600

> <Curation/DataSource>
ChEMBL

> <Article DOI>
10.1021/jm501127s

> <PMID>
25580811

> <Patent Number>
?

> <Authors>
Zhu, J; Han, L; Diao, Y; Ren, X; Xu, M; Xu, L; Li, S; Li, Q; Dong, D; Huang, J; Liu, X; Zhao, Z; Wang, R; Zhu, L; Xu, Y; Qian, X; Li, H

> <Link to Ligand in BindingDB>
http://www.bindingdb.org/bind/chemsearch/marvin/MolStructure.jsp?monomerid=50071603

> <Link to Ligand-Target Pair in BindingDB>
http://www.bindingdb.org/jsp/dbsearch/PrimarySearch_ki.jsp?energyterm=kJ/mole&tag=r21&monomerid=50071603&enzyme=Dihydroorotate+dehydrogenase&column=ki&startPg=0&Increment=50&submit=Search

> <PubChem CID>
118732511

> <PubChem SID>
313072550

$$$$

  Mrv2115 07222212352D          

 31 33  0  0  0  0            999 V2000
    0.7145   -2.8875    0.0000 C   0  0  0  0  0  0  0  0  0  0  0  0
    1.4289   -2.4750    0.0000 N   0  0  0  0  0  0  0  0  0  0  0  0
    2.1434   -2.8875    0.0000 C   0  0  0  0  0  0  0  0  0  0  0  0
    1.4289   -1.6500    0.0000 C   0  0  0  0  0  0  0  0  0  0  0  0
    0.7145   -1.2375    0.0000 C   0  0  0  0  0  0  0  0  0  0  0  0
    0.7145   -0.4125    0.0000 C   0  0  0  0  0  0  0  0  0  0  0  0
    1.4289    0.0000    0.0000 C   0  0  0  0  0  0  0  0  0  0  0  0
    2.1434   -0.4125    0.0000 C   0  0  0  0  0  0  0  0  0  0  0  0
    2.8579    0.0000    0.0000 C   0  0  0  0  0  0  0  0  0  0  0  0
    2.8579    0.8250    0.0000 S   0  0  0  0  0  0  0  0  0  0  0  0
    3.6829    0.8250    0.0000 O   0  0  0  0  0  0  0  0  0  0  0  0
    2.0329    0.8250    0.0000 O   0  0  0  0  0  0  0  0  0  0  0  0
    2.8579    1.6500    0.0000 N   0  0  0  0  0  0  0  0  0  0  0  0
    2.1434    2.0625    0.0000 C   0  0  0  0  0  0  0  0  0  0  0  0
    2.1434    2.8875    0.0000 C   0  0  0  0  0  0  0  0  0  0  0  0
    1.4289    3.3000    0.0000 C   0  0  0  0  0  0  0  0  0  0  0  0
    1.4289    4.1250    0.0000 C   0  0  0  0  0  0  0  0  0  0  0  0
    0.7145    4.5375    0.0000 C   0  0  0  0  0  0  0  0  0  0  0  0
    0.0000    4.1250    0.0000 C   0  0  0  0  0  0  0  0  0  0  0  0
   -0.7145    4.5375    0.0000 O   0  0  0  0  0  0  0  0  0  0  0  0
    0.0000    3.3000    0.0000 O   0  0  0  0  0  0  0  0  0  0  0  0
    0.7145    5.3625    0.0000 N   0  0  0  0  0  0  0  0  0  0  0  0
    1.4289    5.7750    0.0000 C   0  0  0  0  0  0  0  0  0  0  0  0
    1.4289    6.6000    0.0000 O   0  0  0  0  0  0  0  0  0  0  0  0
    2.1434    5.3625    0.0000 N   0  0  0  0  0  0  0  0  0  0  0  0
    2.1434    4.5375    0.0000 C   0  0  0  0  0  0  0  0  0  0  0  0
    2.8579    4.1250    0.0000 O   0  0  0  0  0  0  0  0  0  0  0  0
    3.5724   -0.4125    0.0000 C   0  0  0  0  0  0  0  0  0  0  0  0
    3.5724   -1.2375    0.0000 C   0  0  0  0  0  0  0  0  0  0  0  0
    2.8579   -1.6500    0.0000 C   0  0  0  0  0  0  0  0  0  0  0  0
    2.1434   -1.2375    0.0000 C   0  0  0  0  0  0  0  0  0  0  0  0
  1  2  1  0  0  0  0
  2  3  1  0  0  0  0
  2  4  1  0  0  0  0
  4  5  4  0  0  0  0
  5  6  4  0  0  0  0
  6  7  4  0  0  0  0
  7  8  4  0  0  0  0
  8  9  4  0  0  0  0
  9 10  1  0  0  0  0
 10 11  2  0  0  0  0
 10 12  2  0  0  0  0
 10 13  1  0  0  0  0
 13 14  1  0  0  0  0
 14 15  1  0  0  0  0
 15 16  1  0  0  0  0
 16 17  1  0  0  0  0
 17 18  4  0  0  0  0
 18 19  1  0  0  0  0
 19 20  2  0  0  0  0
 19 21  1  0  0  0  0
 18 22  4  0  0  0  0
 22 23  4  0  0  0  0
 23 24  2  0  0  0  0
 23 25  4  0  0  0  0
 25 26  4  0  0  0  0
 17 26  4  0  0  0  0
 26 27  2  0  0  0  0
  9 28  4  0  0  0  0
 28 29  4  0  0  0  0
 29 30  4  0  0  0  0
 30 31  4  0  0  0  0
  4 31  4  0  0  0  0
  8 31  4  0  0  0  0
M  STY  2   1 DAT   2 DAT
M  SAL   1  1  22
M  SDT   1 MRV_IMPLICIT_H                                        
M  SDD   1     0.5304   -0.4125    DR    ALL  0       0  
M  SED   1 IMPL_H1
M  SAL   2  1  25
M  SDT   2 MRV_IMPLICIT_H                                        
M  SDD   2     0.5304   -0.4125    DR    ALL  0       0  
M  SED   2 IMPL_H1
M  END
> <IC50(uM)>
0.625

> <Outcome>
1.0

> <BindingDB ID>
50555294

> <BindingDB MonomerID>
50211728

> <BindingDB Ligand Name>
CHEMBL3909905

> <Curation/DataSource>
ChEMBL

> <Article DOI>
10.1016/j.bmc.2017.01.009

> <PMID>
28118956

> <Patent Number>
?

> <Authors>
Inaoka, DK; Iida, M; Hashimoto, S; Tabuchi, T; Kuranaga, T; Balogun, EO; Honma, T; Tanaka, A; Harada, S; Nara, T; Kita, K; Inoue, M

> <Link to Ligand in BindingDB>
http://www.bindingdb.org/bind/chemsearch/marvin/MolStructure.jsp?monomerid=50211728

> <Link to Ligand-Target Pair in BindingDB>
http://www.bindingdb.org/jsp/dbsearch/PrimarySearch_ki.jsp?energyterm=kJ/mole&tag=r21&monomerid=50211728&enzyme=Dihydroorotate+dehydrogenase&column=ki&startPg=0&Increment=50&submit=Search

> <PubChem CID>
134132701

> <PubChem SID>
375983066

$$$$

  Mrv2115 07222212352D          

 31 35  0  0  0  0            999 V2000
    0.8838   -2.1500    0.0000 C   0  0  0  0  0  0  0  0  0  0  0  0
    1.1387   -1.3654    0.0000 N   0  0  0  0  0  0  0  0  0  0  0  0
    0.6538   -0.6979    0.0000 N   0  0  0  0  0  0  0  0  0  0  0  0
    1.1387   -0.0305    0.0000 N   0  0  0  0  0  0  0  0  0  0  0  0
    1.9233   -0.2854    0.0000 C   0  0  0  0  0  0  0  0  0  0  0  0
    2.6378    0.1271    0.0000 C   0  0  0  0  0  0  0  0  0  0  0  0
    3.3523   -0.2854    0.0000 C   0  0  0  0  0  0  0  0  0  0  0  0
    4.0668    0.1271    0.0000 C   0  0  0  0  0  0  0  0  0  0  0  0
    4.0668    0.9521    0.0000 C   0  0  0  0  0  0  0  0  0  0  0  0
    4.7812    1.3646    0.0000 C   0  0  0  0  0  0  0  0  0  0  0  0
    5.4957    0.9521    0.0000 C   0  0  0  0  0  0  0  0  0  0  0  0
    6.2102    1.3646    0.0000 C   0  0  0  0  0  0  0  0  0  0  0  0
    6.2102    2.1896    0.0000 C   0  0  0  0  0  0  0  0  0  0  0  0
    6.9246    2.6021    0.0000 C   0  0  0  0  0  0  0  0  0  0  0  0
    7.6391    2.1896    0.0000 C   0  0  0  0  0  0  0  0  0  0  0  0
    7.6391    1.3646    0.0000 C   0  0  0  0  0  0  0  0  0  0  0  0
    6.9246    0.9521    0.0000 C   0  0  0  0  0  0  0  0  0  0  0  0
    6.9246    0.1271    0.0000 C   0  0  0  0  0  0  0  0  0  0  0  0
    7.6391   -0.2854    0.0000 N   0  0  0  0  0  0  0  0  0  0  0  0
    8.3928    0.0501    0.0000 C   0  0  0  0  0  0  0  0  0  0  0  0
    8.9448   -0.5630    0.0000 C   0  0  0  0  0  0  0  0  0  0  0  0
    8.5323   -1.2775    0.0000 C   0  0  0  0  0  0  0  0  0  0  0  0
    7.7253   -1.1059    0.0000 C   0  0  0  0  0  0  0  0  0  0  0  0
    5.4957    0.1271    0.0000 C   0  0  0  0  0  0  0  0  0  0  0  0
    4.7812   -0.2854    0.0000 C   0  0  0  0  0  0  0  0  0  0  0  0
    3.3523   -1.1104    0.0000 C   0  0  0  0  0  0  0  0  0  0  0  0
    2.6378   -1.5229    0.0000 C   0  0  0  0  0  0  0  0  0  0  0  0
    2.6378   -2.3479    0.0000 C   0  0  0  0  0  0  0  0  0  0  0  0
    1.9233   -2.7604    0.0000 O   0  0  0  0  0  0  0  0  0  0  0  0
    3.3523   -2.7604    0.0000 O   0  0  0  0  0  0  0  0  0  0  0  0
    1.9233   -1.1104    0.0000 C   0  0  0  0  0  0  0  0  0  0  0  0
  1  2  1  0  0  0  0
  2  3  4  0  0  0  0
  3  4  4  0  0  0  0
  4  5  4  0  0  0  0
  5  6  4  0  0  0  0
  6  7  4  0  0  0  0
  7  8  1  0  0  0  0
  8  9  4  0  0  0  0
  9 10  4  0  0  0  0
 10 11  4  0  0  0  0
 11 12  1  0  0  0  0
 12 13  4  0  0  0  0
 13 14  4  0  0  0  0
 14 15  4  0  0  0  0
 15 16  4  0  0  0  0
 16 17  4  0  0  0  0
 12 17  4  0  0  0  0
 17 18  1  0  0  0  0
 18 19  1  0  0  0  0
 19 20  1  0  0  0  0
 20 21  1  0  0  0  0
 21 22  1  0  0  0  0
 22 23  1  0  0  0  0
 19 23  1  0  0  0  0
 11 24  4  0  0  0  0
 24 25  4  0  0  0  0
  8 25  4  0  0  0  0
  7 26  4  0  0  0  0
 26 27  4  0  0  0  0
 27 28  1  0  0  0  0
 28 29  2  0  0  0  0
 28 30  1  0  0  0  0
 27 31  4  0  0  0  0
  5 31  4  0  0  0  0
  2 31  4  0  0  0  0
M  END
> <IC50(uM)>
1.0

> <Outcome>
1.0

> <BindingDB ID>
1100181

> <BindingDB MonomerID>
520640

> <BindingDB Ligand Name>
1-methyl-5-(2'-(pyrrolidin-1-ylmethyl)-[1,1'-biphenyl]-4-yl)-1H-benzo[d][1,2,3]triazole- 7-carboxylic acid;::US11147801, Compound 27

> <Curation/DataSource>
US Patent

> <Article DOI>
?

> <PMID>
?

> <Patent Number>
US11147801

> <Authors>
Nellore, K; Hosahalli, S

> <Link to Ligand in BindingDB>
http://www.bindingdb.org/bind/chemsearch/marvin/MolStructure.jsp?monomerid=520640

> <Link to Ligand-Target Pair in BindingDB>
http://www.bindingdb.org/jsp/dbsearch/PrimarySearch_ki.jsp?energyterm=kJ/mole&tag=r21&monomerid=520640&enzyme=Dihydroorotate+dehydrogenase&column=ki&startPg=0&Increment=50&submit=Search

> <PubChem CID>
?

> <PubChem SID>
?

$$$$

  Mrv2115 07222212352D          

 29 32  0  0  0  0            999 V2000
    7.8592    1.2375    0.0000 O   0  0  0  0  0  0  0  0  0  0  0  0
    7.8592    0.4125    0.0000 C   0  0  0  0  0  0  0  0  0  0  0  0
    7.1447    0.0000    0.0000 C   0  0  0  0  0  0  0  0  0  0  0  0
    6.4302    0.4125    0.0000 C   0  0  0  0  0  0  0  0  0  0  0  0
    5.7158    0.0000    0.0000 N   0  0  0  0  0  0  0  0  0  0  0  0
    5.0013    0.4125    0.0000 C   0  0  0  0  0  0  0  0  0  0  0  0
    5.0013    1.2375    0.0000 O   0  0  0  0  0  0  0  0  0  0  0  0
    4.2868    0.0000    0.0000 C   0  0  0  0  0  0  0  0  0  0  0  0
    4.2868   -0.8250    0.0000 C   0  0  0  0  0  0  0  0  0  0  0  0
    3.5724   -1.2375    0.0000 C   0  0  0  0  0  0  0  0  0  0  0  0
    2.8579   -0.8250    0.0000 C   0  0  0  0  0  0  0  0  0  0  0  0
    2.8579    0.0000    0.0000 C   0  0  0  0  0  0  0  0  0  0  0  0
    3.5724    0.4125    0.0000 C   0  0  0  0  0  0  0  0  0  0  0  0
    2.0733    0.2549    0.0000 O   0  0  0  0  0  0  0  0  0  0  0  0
    1.5883   -0.4125    0.0000 C   0  0  0  0  0  0  0  0  0  0  0  0
    0.9752    0.1395    0.0000 F   0  0  0  0  0  0  0  0  0  0  0  0
    0.9752   -0.9645    0.0000 F   0  0  0  0  0  0  0  0  0  0  0  0
    2.0733   -1.0799    0.0000 O   0  0  0  0  0  0  0  0  0  0  0  0
    8.5737    0.0000    0.0000 N   0  0  0  0  0  0  0  0  0  0  0  0
    9.2881    0.4125    0.0000 C   0  0  0  0  0  0  0  0  0  0  0  0
    9.2881    1.2375    0.0000 C   0  0  0  0  0  0  0  0  0  0  0  0
   10.0026    1.6500    0.0000 C   0  0  0  0  0  0  0  0  0  0  0  0
   10.7171    1.2375    0.0000 C   0  0  0  0  0  0  0  0  0  0  0  0
   10.7171    0.4125    0.0000 C   0  0  0  0  0  0  0  0  0  0  0  0
   11.4315    0.0000    0.0000 C   0  0  0  0  0  0  0  0  0  0  0  0
   11.4315   -0.8250    0.0000 C   0  0  0  0  0  0  0  0  0  0  0  0
   10.7171   -1.2375    0.0000 C   0  0  0  0  0  0  0  0  0  0  0  0
   10.0026   -0.8250    0.0000 C   0  0  0  0  0  0  0  0  0  0  0  0
   10.0026    0.0000    0.0000 C   0  0  0  0  0  0  0  0  0  0  0  0
  1  2  2  0  0  0  0
  2  3  1  0  0  0  0
  3  4  1  0  0  0  0
  4  5  1  0  0  0  0
  5  6  1  0  0  0  0
  6  7  2  0  0  0  0
  6  8  1  0  0  0  0
  8  9  4  0  0  0  0
  9 10  4  0  0  0  0
 10 11  4  0  0  0  0
 11 12  4  0  0  0  0
 12 13  4  0  0  0  0
  8 13  4  0  0  0  0
 12 14  1  0  0  0  0
 14 15  1  0  0  0  0
 15 16  1  0  0  0  0
 15 17  1  0  0  0  0
 15 18  1  0  0  0  0
 11 18  1  0  0  0  0
  2 19  1  0  0  0  0
 19 20  1  0  0  0  0
 20 21  1  0  0  0  0
 21 22  1  0  0  0  0
 22 23  1  0  0  0  0
 23 24  1  0  0  0  0
 24 25  4  0  0  0  0
 25 26  4  0  0  0  0
 26 27  4  0  0  0  0
 27 28  4  0  0  0  0
 28 29  4  0  0  0  0
 24 29  4  0  0  0  0
 20 29  1  0  0  0  0
M  END
> <IC50(uM)>
2.7

> <Outcome>
0.0

> <BindingDB ID>
50527769

> <BindingDB MonomerID>
50201615

> <BindingDB Ligand Name>
CHEMBL3188811

> <Curation/DataSource>
ChEMBL

> <Article DOI>
10.1021/acsmedchemlett.6b00316

> <PMID>
27994748

> <Patent Number>
?

> <Authors>
Lewis, TA; Sykes, DB; Law, JM; Mu??oz, B; Rustiguel, JK; Nonato, MC; Scadden, DT; Schreiber, SL

> <Link to Ligand in BindingDB>
http://www.bindingdb.org/bind/chemsearch/marvin/MolStructure.jsp?monomerid=50201615

> <Link to Ligand-Target Pair in BindingDB>
http://www.bindingdb.org/jsp/dbsearch/PrimarySearch_ki.jsp?energyterm=kJ/mole&tag=r21&monomerid=50201615&enzyme=Dihydroorotate+dehydrogenase&column=ki&startPg=0&Increment=50&submit=Search

> <PubChem CID>
71768310

> <PubChem SID>
375979404

$$$$

  Mrv2115 07222212352D          

 29 32  0  0  0  0            999 V2000
    0.0000   -2.4750    0.0000 C   0  0  0  0  0  0  0  0  0  0  0  0
    0.0000   -1.6500    0.0000 O   0  0  0  0  0  0  0  0  0  0  0  0
    0.7145   -1.2375    0.0000 C   0  0  0  0  0  0  0  0  0  0  0  0
    0.7145   -0.4125    0.0000 C   0  0  0  0  0  0  0  0  0  0  0  0
    1.4289    0.0000    0.0000 C   0  0  0  0  0  0  0  0  0  0  0  0
    2.1434   -0.4125    0.0000 C   0  0  0  0  0  0  0  0  0  0  0  0
    2.8579    0.0000    0.0000 N   0  0  0  0  0  0  0  0  0  0  0  0
    3.5724   -0.4125    0.0000 C   0  0  0  0  0  0  0  0  0  0  0  0
    4.2868   -0.0000    0.0000 C   0  0  0  0  0  0  0  0  0  0  0  0
    5.0013   -0.4125    0.0000 O   0  0  0  0  0  0  0  0  0  0  0  0
    4.2868    0.8250    0.0000 N   0  0  0  0  0  0  0  0  0  0  0  0
    5.0013    1.2375    0.0000 C   0  0  0  0  0  0  0  0  0  0  0  0
    5.0013    2.0625    0.0000 C   0  0  0  0  0  0  0  0  0  0  0  0
    5.7158    2.4750    0.0000 C   0  0  0  0  0  0  0  0  0  0  0  0
    6.4302    2.0625    0.0000 C   0  0  0  0  0  0  0  0  0  0  0  0
    7.1447    2.4750    0.0000 C   0  0  0  0  0  0  0  0  0  0  0  0
    7.1447    3.3000    0.0000 C   0  0  0  0  0  0  0  0  0  0  0  0
    7.8592    3.7125    0.0000 C   0  0  0  0  0  0  0  0  0  0  0  0
    8.5737    3.3000    0.0000 C   0  0  0  0  0  0  0  0  0  0  0  0
    8.5737    2.4750    0.0000 C   0  0  0  0  0  0  0  0  0  0  0  0
    7.8592    2.0625    0.0000 C   0  0  0  0  0  0  0  0  0  0  0  0
    6.4302    1.2375    0.0000 C   0  0  0  0  0  0  0  0  0  0  0  0
    5.7158    0.8250    0.0000 C   0  0  0  0  0  0  0  0  0  0  0  0
    3.5724   -1.2375    0.0000 C   0  0  0  0  0  0  0  0  0  0  0  0
    4.2868   -1.6500    0.0000 C   0  0  0  0  0  0  0  0  0  0  0  0
    2.8579   -1.6500    0.0000 C   0  0  0  0  0  0  0  0  0  0  0  0
    2.8579   -2.4750    0.0000 O   0  0  0  0  0  0  0  0  0  0  0  0
    2.1434   -1.2375    0.0000 C   0  0  0  0  0  0  0  0  0  0  0  0
    1.4289   -1.6500    0.0000 C   0  0  0  0  0  0  0  0  0  0  0  0
  1  2  1  0  0  0  0
  2  3  1  0  0  0  0
  3  4  4  0  0  0  0
  4  5  4  0  0  0  0
  5  6  4  0  0  0  0
  6  7  4  0  0  0  0
  7  8  4  0  0  0  0
  8  9  1  0  0  0  0
  9 10  2  0  0  0  0
  9 11  1  0  0  0  0
 11 12  1  0  0  0  0
 12 13  4  0  0  0  0
 13 14  4  0  0  0  0
 14 15  4  0  0  0  0
 15 16  1  0  0  0  0
 16 17  4  0  0  0  0
 17 18  4  0  0  0  0
 18 19  4  0  0  0  0
 19 20  4  0  0  0  0
 20 21  4  0  0  0  0
 16 21  4  0  0  0  0
 15 22  4  0  0  0  0
 22 23  4  0  0  0  0
 12 23  4  0  0  0  0
  8 24  4  0  0  0  0
 24 25  1  0  0  0  0
 24 26  4  0  0  0  0
 26 27  1  0  0  0  0
 26 28  4  0  0  0  0
  6 28  4  0  0  0  0
 28 29  4  0  0  0  0
  3 29  4  0  0  0  0
M  END
> <IC50(uM)>
2.28

> <Outcome>
0.0

> <BindingDB ID>
50107548

> <BindingDB MonomerID>
50020694

> <BindingDB Ligand Name>
CHEMBL3286441

> <Curation/DataSource>
ChEMBL

> <Article DOI>
10.1016/j.ejmech.2014.05.064

> <PMID>
24929289

> <Patent Number>
?

> <Authors>
Vyas, VK; Variya, B; Ghate, MD

> <Link to Ligand in BindingDB>
http://www.bindingdb.org/bind/chemsearch/marvin/MolStructure.jsp?monomerid=50020694

> <Link to Ligand-Target Pair in BindingDB>
http://www.bindingdb.org/jsp/dbsearch/PrimarySearch_ki.jsp?energyterm=kJ/mole&tag=r21&monomerid=50020694&enzyme=Dihydroorotate+dehydrogenase&column=ki&startPg=0&Increment=50&submit=Search

> <PubChem CID>
90644869

> <PubChem SID>
103931453

$$$$

  Mrv2115 07222212352D          

 26 28  0  0  0  0            999 V2000
    7.2636   -3.7018    0.0000 C   0  0  0  0  0  0  0  0  0  0  0  0
    7.2636   -2.8768    0.0000 C   0  0  0  0  0  0  0  0  0  0  0  0
    7.9781   -2.4643    0.0000 O   0  0  0  0  0  0  0  0  0  0  0  0
    7.9781   -1.6393    0.0000 C   0  0  0  0  0  0  0  0  0  0  0  0
    7.2636   -1.2268    0.0000 O   0  0  0  0  0  0  0  0  0  0  0  0
    8.6926   -1.2268    0.0000 C   0  0  0  0  0  0  0  0  0  0  0  0
    8.6926   -0.4018    0.0000 C   0  0  0  0  0  0  0  0  0  0  0  0
    9.4071    0.0107    0.0000 N   0  0  0  0  0  0  0  0  0  0  0  0
    9.4071    0.8357    0.0000 C   0  0  0  0  0  0  0  0  0  0  0  0
    8.6926    1.2482    0.0000 C   0  0  0  0  0  0  0  0  0  0  0  0
    8.6926    2.0732    0.0000 C   0  0  0  0  0  0  0  0  0  0  0  0
    9.4071    2.4857    0.0000 C   0  0  0  0  0  0  0  0  0  0  0  0
    9.5786    3.2926    0.0000 S   0  0  0  0  0  0  0  0  0  0  0  0
   10.3991    3.3789    0.0000 C   0  0  0  0  0  0  0  0  0  0  0  0
   10.8840    4.0463    0.0000 C   0  0  0  0  0  0  0  0  0  0  0  0
   11.7045    3.9601    0.0000 C   0  0  0  0  0  0  0  0  0  0  0  0
   12.0400    3.2064    0.0000 C   0  0  0  0  0  0  0  0  0  0  0  0
   11.5551    2.5390    0.0000 C   0  0  0  0  0  0  0  0  0  0  0  0
   10.7346    2.6252    0.0000 C   0  0  0  0  0  0  0  0  0  0  0  0
   10.1215    2.0732    0.0000 C   0  0  0  0  0  0  0  0  0  0  0  0
   10.1215    1.2482    0.0000 C   0  0  0  0  0  0  0  0  0  0  0  0
    9.4071   -1.6393    0.0000 C   0  0  0  0  0  0  0  0  0  0  0  0
   10.1215   -1.2268    0.0000 O   0  0  0  0  0  0  0  0  0  0  0  0
    9.4071   -2.4643    0.0000 O   0  0  0  0  0  0  0  0  0  0  0  0
   10.1215   -2.8768    0.0000 C   0  0  0  0  0  0  0  0  0  0  0  0
   10.1215   -3.7018    0.0000 C   0  0  0  0  0  0  0  0  0  0  0  0
  1  2  1  0  0  0  0
  2  3  1  0  0  0  0
  3  4  1  0  0  0  0
  4  5  2  0  0  0  0
  4  6  1  0  0  0  0
  7  6  1  4  0  0  0
  7  8  2  0  0  0  0
  8  9  1  0  0  0  0
  9 10  4  0  0  0  0
 10 11  4  0  0  0  0
 11 12  4  0  0  0  0
 12 13  4  0  0  0  0
 13 14  4  0  0  0  0
 14 15  4  0  0  0  0
 15 16  4  0  0  0  0
 16 17  4  0  0  0  0
 17 18  4  0  0  0  0
 18 19  4  0  0  0  0
 14 19  4  0  0  0  0
 19 20  4  0  0  0  0
 12 20  4  0  0  0  0
 20 21  4  0  0  0  0
  9 21  4  0  0  0  0
  6 22  1  0  0  0  0
 22 23  2  0  0  0  0
 22 24  1  0  0  0  0
 24 25  1  0  0  0  0
 25 26  1  0  0  0  0
M  END
> <IC50(uM)>
29.57

> <Outcome>
0.0

> <BindingDB ID>
26828

> <BindingDB MonomerID>
14699

> <BindingDB Ligand Name>
1,3-diethyl 2-({8-thiatricyclo[7.4.0.0^{2,7}]trideca-1(9),2(7),3,5,10,12-hexaen-4-ylamino}methylidene)propanedioate::2-(Dibenzothiophen-2-ylaminomethylene)-malonic acid diethyl ester::tricyclic compound 5

> <Curation/DataSource>
Curated from the literature by BindingDB

> <Article DOI>
10.1021/jm060687j

> <PMID>
17228860

> <Patent Number>
?

> <Authors>
Heikkila, T; Ramsey, C; Davies, M; Galtier, C; Stead, AM; Johnson, AP; Fishwick, CW; Boa, AN; McConkey, GA

> <Link to Ligand in BindingDB>
http://www.bindingdb.org/bind/chemsearch/marvin/MolStructure.jsp?monomerid=14699

> <Link to Ligand-Target Pair in BindingDB>
http://www.bindingdb.org/jsp/dbsearch/PrimarySearch_ki.jsp?energyterm=kJ/mole&tag=r21&monomerid=14699&enzyme=Dihydroorotate+dehydrogenase&column=ki&startPg=0&Increment=50&submit=Search

> <PubChem CID>
91895901

> <PubChem SID>
46515030

$$$$

  Mrv2115 07222212352D          

 33 36  0  0  0  0            999 V2000
   -3.1034    2.1599    0.0000 C   0  0  0  0  0  0  0  0  0  0  0  0
   -2.6909    1.4455    0.0000 C   0  0  0  0  0  0  0  0  0  0  0  0
   -3.1034    0.7310    0.0000 O   0  0  0  0  0  0  0  0  0  0  0  0
   -2.6909    0.0165    0.0000 C   0  0  0  0  0  0  0  0  0  0  0  0
   -1.8659    0.0165    0.0000 C   0  0  0  0  0  0  0  0  0  0  0  0
   -1.4534   -0.6979    0.0000 C   0  0  0  0  0  0  0  0  0  0  0  0
   -0.6284   -0.6979    0.0000 N   0  0  0  0  0  0  0  0  0  0  0  0
   -0.1435   -1.3654    0.0000 N   0  0  0  0  0  0  0  0  0  0  0  0
    0.6411   -1.1104    0.0000 C   0  0  0  0  0  0  0  0  0  0  0  0
    0.6411   -0.2854    0.0000 N   0  0  0  0  0  0  0  0  0  0  0  0
   -0.1435   -0.0305    0.0000 C   0  0  0  0  0  0  0  0  0  0  0  0
   -0.3984    0.7541    0.0000 O   0  0  0  0  0  0  0  0  0  0  0  0
    1.3556    0.1271    0.0000 C   0  0  0  0  0  0  0  0  0  0  0  0
    2.0701   -0.2854    0.0000 C   0  0  0  0  0  0  0  0  0  0  0  0
    2.0701   -1.1104    0.0000 C   0  0  0  0  0  0  0  0  0  0  0  0
    1.3556   -1.5229    0.0000 C   0  0  0  0  0  0  0  0  0  0  0  0
   -1.8659   -1.4124    0.0000 C   0  0  0  0  0  0  0  0  0  0  0  0
   -1.4534   -2.1269    0.0000 F   0  0  0  0  0  0  0  0  0  0  0  0
   -2.6909   -1.4124    0.0000 C   0  0  0  0  0  0  0  0  0  0  0  0
   -3.1034   -0.6979    0.0000 C   0  0  0  0  0  0  0  0  0  0  0  0
   -3.9284   -0.6979    0.0000 C   0  0  0  0  0  0  0  0  0  0  0  0
   -4.3409    0.0165    0.0000 O   0  0  0  0  0  0  0  0  0  0  0  0
   -4.3409   -1.4124    0.0000 N   0  0  0  0  0  0  0  0  0  0  0  0
   -5.1659   -1.4124    0.0000 C   0  0  0  0  0  0  0  0  0  0  0  0
   -5.6509   -2.0799    0.0000 C   0  0  0  0  0  0  0  0  0  0  0  0
   -6.4355   -1.8249    0.0000 C   0  0  0  0  0  0  0  0  0  0  0  0
   -6.4355   -0.9999    0.0000 N   0  0  0  0  0  0  0  0  0  0  0  0
   -5.6509   -0.7450    0.0000 N   0  0  0  0  0  0  0  0  0  0  0  0
   -5.3959    0.0396    0.0000 C   0  0  0  0  0  0  0  0  0  0  0  0
   -1.8659    1.4455    0.0000 C   0  0  0  0  0  0  0  0  0  0  0  0
   -1.8659    0.6205    0.0000 F   0  0  0  0  0  0  0  0  0  0  0  0
   -1.8659    2.2705    0.0000 F   0  0  0  0  0  0  0  0  0  0  0  0
   -1.0409    1.4455    0.0000 F   0  0  0  0  0  0  0  0  0  0  0  0
  1  2  1  0  0  0  0
  2  3  1  0  0  0  0
  3  4  1  0  0  0  0
  4  5  4  0  0  0  0
  5  6  4  0  0  0  0
  6  7  1  0  0  0  0
  7  8  4  0  0  0  0
  8  9  4  0  0  0  0
  9 10  4  0  0  0  0
 10 11  4  0  0  0  0
  7 11  4  0  0  0  0
 11 12  2  0  0  0  0
 10 13  1  0  0  0  0
 13 14  1  0  0  0  0
 14 15  1  0  0  0  0
 15 16  1  0  0  0  0
  9 16  1  0  0  0  0
  6 17  4  0  0  0  0
 17 18  1  0  0  0  0
 17 19  4  0  0  0  0
 19 20  4  0  0  0  0
  4 20  4  0  0  0  0
 20 21  1  0  0  0  0
 21 22  2  0  0  0  0
 21 23  1  0  0  0  0
 23 24  1  0  0  0  0
 24 25  4  0  0  0  0
 25 26  4  0  0  0  0
 26 27  4  0  0  0  0
 27 28  4  0  0  0  0
 24 28  4  0  0  0  0
 28 29  1  0  0  0  0
  2 30  1  0  0  0  0
 30 31  1  0  0  0  0
 30 32  1  0  0  0  0
 30 33  1  0  0  0  0
M  END
> <IC50(uM)>
0.9

> <Outcome>
1.0

> <BindingDB ID>
1020466

> <BindingDB MonomerID>
490414

> <BindingDB Ligand Name>
5-fluoro-N-(1-methyl-1H-pyrazol-5-yl)-4-(3-oxo-5,6,7,8-tetrahydro[1,2,4]triazolo[4,3-a]pyridin-2(3H)-yl)-2-{[(2S)-1,1,1-trifluoropropan-2-yl]oxy}benzamide::US10968216, Example 82

> <Curation/DataSource>
US Patent

> <Article DOI>
?

> <PMID>
?

> <Patent Number>
US10968216

> <Authors>
Gradl, SN; Nguyen, D; Eis, K; Gunther, J; Stellfeld, T; Janzer, A; Christian, S; Mueller, T; Sheikh, SE; Zhou, HJ; Zhao, C; Sykes, DB; Ferrara, SJ; Liu, K; Herbert, SA; Merz, C; Niehues, M; Nising, CF; Schafer, M; Zimmermann, K; Knablein, J; Thede, K; Faupel, T

> <Link to Ligand in BindingDB>
http://www.bindingdb.org/bind/chemsearch/marvin/MolStructure.jsp?monomerid=490414

> <Link to Ligand-Target Pair in BindingDB>
http://www.bindingdb.org/jsp/dbsearch/PrimarySearch_ki.jsp?energyterm=kJ/mole&tag=r21&monomerid=490414&enzyme=Dihydroorotate+dehydrogenase&column=ki&startPg=0&Increment=50&submit=Search

> <PubChem CID>
142335844

> <PubChem SID>
447117141

$$$$

  Mrv2115 07222212352D          

 35 37  0  0  0  0            999 V2000
    0.7145   -3.7125    0.0000 C   0  0  0  0  0  0  0  0  0  0  0  0
    1.4289   -4.1250    0.0000 C   0  0  0  0  0  0  0  0  0  0  0  0
    1.4289   -4.9500    0.0000 C   0  0  0  0  0  0  0  0  0  0  0  0
    0.7615   -5.4349    0.0000 N   0  0  0  0  0  0  0  0  0  0  0  0
    1.0164   -6.2195    0.0000 N   0  0  0  0  0  0  0  0  0  0  0  0
    0.5315   -6.8870    0.0000 C   0  0  0  0  0  0  0  0  0  0  0  0
    0.8671   -7.6407    0.0000 C   0  0  0  0  0  0  0  0  0  0  0  0
    0.3822   -8.3081    0.0000 C   0  0  0  0  0  0  0  0  0  0  0  0
    0.7177   -9.0618    0.0000 O   0  0  0  0  0  0  0  0  0  0  0  0
    1.5382   -9.1480    0.0000 C   0  0  0  0  0  0  0  0  0  0  0  0
    2.0231   -8.4806    0.0000 C   0  0  0  0  0  0  0  0  0  0  0  0
    1.8738   -9.9017    0.0000 C   0  0  0  0  0  0  0  0  0  0  0  0
    1.1201  -10.2372    0.0000 F   0  0  0  0  0  0  0  0  0  0  0  0
    2.6274   -9.5661    0.0000 F   0  0  0  0  0  0  0  0  0  0  0  0
    2.2093  -10.6554    0.0000 F   0  0  0  0  0  0  0  0  0  0  0  0
   -0.4383   -8.2219    0.0000 C   0  0  0  0  0  0  0  0  0  0  0  0
   -0.9232   -8.8893    0.0000 C   0  0  0  0  0  0  0  0  0  0  0  0
   -1.7437   -8.8031    0.0000 O   0  0  0  0  0  0  0  0  0  0  0  0
   -0.5877   -9.6430    0.0000 N   0  0  0  0  0  0  0  0  0  0  0  0
   -1.0726  -10.3104    0.0000 C   0  0  0  0  0  0  0  0  0  0  0  0
   -0.7371  -11.0641    0.0000 C   0  0  0  0  0  0  0  0  0  0  0  0
    0.0834  -11.1503    0.0000 F   0  0  0  0  0  0  0  0  0  0  0  0
   -1.2220  -11.7315    0.0000 C   0  0  0  0  0  0  0  0  0  0  0  0
   -2.0425  -11.6453    0.0000 C   0  0  0  0  0  0  0  0  0  0  0  0
   -2.3780  -10.8916    0.0000 C   0  0  0  0  0  0  0  0  0  0  0  0
   -1.8931  -10.2242    0.0000 C   0  0  0  0  0  0  0  0  0  0  0  0
   -2.2287   -9.4705    0.0000 F   0  0  0  0  0  0  0  0  0  0  0  0
   -0.7739   -7.4682    0.0000 C   0  0  0  0  0  0  0  0  0  0  0  0
   -0.2890   -6.8007    0.0000 C   0  0  0  0  0  0  0  0  0  0  0  0
   -0.6245   -6.0471    0.0000 F   0  0  0  0  0  0  0  0  0  0  0  0
    1.8414   -6.2195    0.0000 C   0  0  0  0  0  0  0  0  0  0  0  0
    2.3264   -6.8870    0.0000 O   0  0  0  0  0  0  0  0  0  0  0  0
    2.0964   -5.4349    0.0000 N   0  0  0  0  0  0  0  0  0  0  0  0
    2.8810   -5.1800    0.0000 C   0  0  0  0  0  0  0  0  0  0  0  0
    3.4941   -5.7320    0.0000 C   0  0  0  0  0  0  0  0  0  0  0  0
  1  2  1  0  0  0  0
  2  3  1  0  0  0  0
  3  4  4  0  0  0  0
  4  5  4  0  0  0  0
  5  6  1  0  0  0  0
  6  7  4  0  0  0  0
  7  8  4  0  0  0  0
  8  9  1  0  0  0  0
  9 10  1  0  0  0  0
 10 11  1  0  0  0  0
 10 12  1  0  0  0  0
 12 13  1  0  0  0  0
 12 14  1  0  0  0  0
 12 15  1  0  0  0  0
  8 16  4  0  0  0  0
 16 17  1  0  0  0  0
 17 18  2  0  0  0  0
 17 19  1  0  0  0  0
 19 20  1  0  0  0  0
 20 21  4  0  0  0  0
 21 22  1  0  0  0  0
 21 23  4  0  0  0  0
 23 24  4  0  0  0  0
 24 25  4  0  0  0  0
 25 26  4  0  0  0  0
 20 26  4  0  0  0  0
 26 27  1  0  0  0  0
 16 28  4  0  0  0  0
 28 29  4  0  0  0  0
  6 29  4  0  0  0  0
 29 30  1  0  0  0  0
  5 31  4  0  0  0  0
 31 32  2  0  0  0  0
 31 33  4  0  0  0  0
  3 33  4  0  0  0  0
 33 34  1  0  0  0  0
 34 35  1  0  0  0  0
M  END
> <IC50(uM)>
0.016

> <Outcome>
1.0

> <BindingDB ID>
1098721; 972567

> <BindingDB MonomerID>
470441

> <BindingDB Ligand Name>
4-(3,4-diethyl-5-oxo-4,5-dihydro-1H-1,2,4-triazol-1-yl)-N-(2,6-difluorophenyl)-5-fluoro-2-{[(2S)-1,1,1-trifluoropropan-2-yl]oxy}benzamide::US10815215, Example 109::US11130745, Example 109; 4-(3,4-diethyl-5-oxo-4,5-dihydro-1H-1,2,4-triazol-1-yl)-N-(2,6-difluorophenyl)-5-fluoro-2-{[(2S)-1,1,1-trifluoropropan-2-yl]oxy}benzamide::US10815215, Example 109

> <Curation/DataSource>
US Patent

> <Article DOI>
?

> <PMID>
?

> <Patent Number>
US11130745; US10815215

> <Authors>
Gradl, SN; Nguyen, D; Eis, K; Gunther, J; Stellfeld, T; Janzer, A; Christian, S; Muller, T; Sheikh, SE; Sykes, DB; Ferrara, SJ; Krober, M; Merz, C; Niehues, M; Schafer, M; Zimmermann, K; Nising, CF; Gradl, SN; Nguyen, D; Eis, K; Gunther, J; Stellfeld, T; Janzer, A; Christian, S; Muller, T; Sheikh, SE; Zhou, HJ; Zhao, C; Sykes, DB; Ferrara, SJ; Liu, K; Krober, M; Merz, C; Niehues, M; Schafer, M; Zimmermann, K; Nising, CF

> <Link to Ligand in BindingDB>
http://www.bindingdb.org/bind/chemsearch/marvin/MolStructure.jsp?monomerid=470441

> <Link to Ligand-Target Pair in BindingDB>
http://www.bindingdb.org/jsp/dbsearch/PrimarySearch_ki.jsp?energyterm=kJ/mole&tag=r21&monomerid=470441&enzyme=Dihydroorotate+dehydrogenase&column=ki&startPg=0&Increment=50&submit=Search

> <PubChem CID>
134470396

> <PubChem SID>
441609618

$$$$

  Mrv2115 07222212352D          

 18 19  0  0  0  0            999 V2000
    2.2501    6.0027    0.0000 C   0  0  0  0  0  0  0  0  0  0  0  0
    1.5356    5.5902    0.0000 C   0  0  0  0  0  0  0  0  0  0  0  0
    1.5356    4.7652    0.0000 C   0  0  0  0  0  0  0  0  0  0  0  0
    0.8212    4.3527    0.0000 C   0  0  0  0  0  0  0  0  0  0  0  0
    0.1067    4.7652    0.0000 C   0  0  0  0  0  0  0  0  0  0  0  0
   -0.6078    4.3527    0.0000 N   0  0  0  0  0  0  0  0  0  0  0  0
   -0.6078    3.5277    0.0000 C   0  0  0  0  0  0  0  0  0  0  0  0
    0.0597    3.0428    0.0000 S   0  0  0  0  0  0  0  0  0  0  0  0
   -0.1953    2.2581    0.0000 C   0  0  0  0  0  0  0  0  0  0  0  0
   -1.0203    2.2581    0.0000 C   0  0  0  0  0  0  0  0  0  0  0  0
   -1.5052    1.5907    0.0000 O   0  0  0  0  0  0  0  0  0  0  0  0
   -1.2752    3.0428    0.0000 C   0  0  0  0  0  0  0  0  0  0  0  0
   -2.0598    3.2977    0.0000 C   0  0  0  0  0  0  0  0  0  0  0  0
   -2.2314    4.1047    0.0000 N   0  0  0  0  0  0  0  0  0  0  0  0
   -2.6729    2.7457    0.0000 O   0  0  0  0  0  0  0  0  0  0  0  0
    0.1067    5.5902    0.0000 C   0  0  0  0  0  0  0  0  0  0  0  0
    0.8212    6.0027    0.0000 C   0  0  0  0  0  0  0  0  0  0  0  0
    0.8212    6.8277    0.0000 C   0  0  0  0  0  0  0  0  0  0  0  0
  1  2  1  0  0  0  0
  2  3  4  0  0  0  0
  3  4  4  0  0  0  0
  4  5  4  0  0  0  0
  5  6  1  0  0  0  0
  6  7  1  0  0  0  0
  7  8  4  0  0  0  0
  8  9  4  0  0  0  0
  9 10  4  0  0  0  0
 10 11  1  0  0  0  0
 10 12  4  0  0  0  0
  7 12  4  0  0  0  0
 12 13  1  0  0  0  0
 13 14  1  0  0  0  0
 13 15  2  0  0  0  0
  5 16  4  0  0  0  0
 16 17  4  0  0  0  0
  2 17  4  0  0  0  0
 17 18  1  0  0  0  0
M  END
> <IC50(uM)>
50.0

> <Outcome>
0.0

> <BindingDB ID>
51079159

> <BindingDB MonomerID>
50441267

> <BindingDB Ligand Name>
CHEMBL2431482

> <Curation/DataSource>
ChEMBL

> <Article DOI>
10.1021/jm400938g

> <PMID>
24073986

> <Patent Number>
?

> <Authors>
Xu, M; Zhu, J; Diao, Y; Zhou, H; Ren, X; Sun, D; Huang, J; Han, D; Zhao, Z; Zhu, L; Xu, Y; Li, H

> <Link to Ligand in BindingDB>
http://www.bindingdb.org/bind/chemsearch/marvin/MolStructure.jsp?monomerid=50441267

> <Link to Ligand-Target Pair in BindingDB>
http://www.bindingdb.org/jsp/dbsearch/PrimarySearch_ki.jsp?energyterm=kJ/mole&tag=r21&monomerid=50441267&enzyme=Dihydroorotate+dehydrogenase&column=ki&startPg=0&Increment=50&submit=Search

> <PubChem CID>
91898828

> <PubChem SID>
175453584

$$$$

  Mrv2115 07222212352D          

 18 21  0  0  0  0            999 V2000
    2.1434   -2.8875    0.0000 C   0  0  0  0  0  0  0  0  0  0  0  0
    2.1434   -3.7125    0.0000 C   0  0  0  0  0  0  0  0  0  0  0  0
    2.8579   -4.1250    0.0000 C   0  0  0  0  0  0  0  0  0  0  0  0
    3.5724   -3.7125    0.0000 C   0  0  0  0  0  0  0  0  0  0  0  0
    3.5724   -2.8875    0.0000 C   0  0  0  0  0  0  0  0  0  0  0  0
    2.8579   -2.4750    0.0000 C   0  0  0  0  0  0  0  0  0  0  0  0
    4.2868   -2.4750    0.0000 N   0  0  0  0  0  0  0  0  0  0  0  0
    5.0013   -2.8875    0.0000 C   0  0  0  0  0  0  0  0  0  0  0  0
    5.7158   -2.4750    0.0000 N   0  0  0  0  0  0  0  0  0  0  0  0
    6.4302   -2.8875    0.0000 C   0  0  0  0  0  0  0  0  0  0  0  0
    7.1447   -2.4750    0.0000 C   0  0  0  0  0  0  0  0  0  0  0  0
    7.8592   -2.8875    0.0000 C   0  0  0  0  0  0  0  0  0  0  0  0
    7.8592   -3.7125    0.0000 C   0  0  0  0  0  0  0  0  0  0  0  0
    7.1447   -4.1250    0.0000 C   0  0  0  0  0  0  0  0  0  0  0  0
    6.4302   -3.7125    0.0000 C   0  0  0  0  0  0  0  0  0  0  0  0
    5.7158   -4.1250    0.0000 N   0  0  0  0  0  0  0  0  0  0  0  0
    5.0013   -3.7125    0.0000 C   0  0  0  0  0  0  0  0  0  0  0  0
    4.2868   -4.1250    0.0000 O   0  0  0  0  0  0  0  0  0  0  0  0
  1  2  4  0  0  0  0
  2  3  4  0  0  0  0
  3  4  4  0  0  0  0
  4  5  4  0  0  0  0
  5  6  4  0  0  0  0
  1  6  4  0  0  0  0
  5  7  1  0  0  0  0
  7  8  1  0  0  0  0
  8  9  4  0  0  0  0
  9 10  4  0  0  0  0
 10 11  4  0  0  0  0
 11 12  4  0  0  0  0
 12 13  4  0  0  0  0
 13 14  4  0  0  0  0
 14 15  4  0  0  0  0
 10 15  4  0  0  0  0
 15 16  4  0  0  0  0
 16 17  4  0  0  0  0
  8 17  4  0  0  0  0
 17 18  1  0  0  0  0
  4 18  1  0  0  0  0
M  END
> <IC50(uM)>
18.28

> <Outcome>
0.0

> <BindingDB ID>
50971925

> <BindingDB MonomerID>
50398633

> <BindingDB Ligand Name>
CHEMBL2177495

> <Curation/DataSource>
ChEMBL

> <Article DOI>
10.1021/jm300630p

> <PMID>
22984987

> <Patent Number>
?

> <Authors>
Diao, Y; Lu, W; Jin, H; Zhu, J; Han, L; Xu, M; Gao, R; Shen, X; Zhao, Z; Liu, X; Xu, Y; Huang, J; Li, H

> <Link to Ligand in BindingDB>
http://www.bindingdb.org/bind/chemsearch/marvin/MolStructure.jsp?monomerid=50398633

> <Link to Ligand-Target Pair in BindingDB>
http://www.bindingdb.org/jsp/dbsearch/PrimarySearch_ki.jsp?energyterm=kJ/mole&tag=r21&monomerid=50398633&enzyme=Dihydroorotate+dehydrogenase&column=ki&startPg=0&Increment=50&submit=Search

> <PubChem CID>
736801

> <PubChem SID>
163347657

$$$$

  Mrv2115 07222212352D          

 28 30  0  0  0  0            999 V2000
   -3.5724    9.2411    0.0000 C   0  0  0  0  0  0  0  0  0  0  0  0
   -2.8579    9.6536    0.0000 C   0  0  0  0  0  0  0  0  0  0  0  0
   -2.1434    9.2411    0.0000 O   0  0  0  0  0  0  0  0  0  0  0  0
   -1.4289    9.6536    0.0000 C   0  0  0  0  0  0  0  0  0  0  0  0
   -1.4289   10.4786    0.0000 C   0  0  0  0  0  0  0  0  0  0  0  0
   -0.7145   10.8911    0.0000 C   0  0  0  0  0  0  0  0  0  0  0  0
    0.0000   10.4786    0.0000 C   0  0  0  0  0  0  0  0  0  0  0  0
    0.0000    9.6536    0.0000 C   0  0  0  0  0  0  0  0  0  0  0  0
   -0.7145    9.2411    0.0000 C   0  0  0  0  0  0  0  0  0  0  0  0
   -0.7145    8.4161    0.0000 C   0  0  0  0  0  0  0  0  0  0  0  0
    0.0000    8.0036    0.0000 C   0  0  0  0  0  0  0  0  0  0  0  0
    0.0000    7.1786    0.0000 C   0  0  0  0  0  0  0  0  0  0  0  0
    0.7145    6.7661    0.0000 F   0  0  0  0  0  0  0  0  0  0  0  0
   -0.7145    6.7661    0.0000 C   0  0  0  0  0  0  0  0  0  0  0  0
   -0.7145    5.9411    0.0000 N   0  0  0  0  0  0  0  0  0  0  0  0
    0.0000    5.5286    0.0000 C   0  0  0  0  0  0  0  0  0  0  0  0
    0.7145    5.9411    0.0000 O   0  0  0  0  0  0  0  0  0  0  0  0
   -0.0000    4.7036    0.0000 C   0  0  0  0  0  0  0  0  0  0  0  0
   -0.6674    4.2187    0.0000 C   0  0  0  0  0  0  0  0  0  0  0  0
   -0.4125    3.4340    0.0000 C   0  0  0  0  0  0  0  0  0  0  0  0
    0.4125    3.4340    0.0000 S   0  0  0  0  0  0  0  0  0  0  0  0
    0.6674    4.2187    0.0000 C   0  0  0  0  0  0  0  0  0  0  0  0
    1.4521    4.4736    0.0000 C   0  0  0  0  0  0  0  0  0  0  0  0
    1.6236    5.2806    0.0000 O   0  0  0  0  0  0  0  0  0  0  0  0
    2.0652    3.9216    0.0000 O   0  0  0  0  0  0  0  0  0  0  0  0
   -1.4289    7.1786    0.0000 C   0  0  0  0  0  0  0  0  0  0  0  0
   -2.1434    6.7661    0.0000 F   0  0  0  0  0  0  0  0  0  0  0  0
   -1.4289    8.0036    0.0000 C   0  0  0  0  0  0  0  0  0  0  0  0
  1  2  1  0  0  0  0
  2  3  1  0  0  0  0
  3  4  1  0  0  0  0
  4  5  4  0  0  0  0
  5  6  4  0  0  0  0
  6  7  4  0  0  0  0
  7  8  4  0  0  0  0
  8  9  4  0  0  0  0
  4  9  4  0  0  0  0
  9 10  1  0  0  0  0
 10 11  4  0  0  0  0
 11 12  4  0  0  0  0
 12 13  1  0  0  0  0
 12 14  4  0  0  0  0
 14 15  1  0  0  0  0
 15 16  1  0  0  0  0
 16 17  2  0  0  0  0
 16 18  1  0  0  0  0
 18 19  4  0  0  0  0
 19 20  4  0  0  0  0
 20 21  4  0  0  0  0
 21 22  4  0  0  0  0
 18 22  4  0  0  0  0
 22 23  1  0  0  0  0
 23 24  2  0  0  0  0
 23 25  1  0  0  0  0
 14 26  4  0  0  0  0
 26 27  1  0  0  0  0
 26 28  4  0  0  0  0
 10 28  4  0  0  0  0
M  END
> <IC50(uM)>
0.009

> <Outcome>
1.0

> <BindingDB ID>
29219

> <BindingDB MonomerID>
16116

> <BindingDB Ligand Name>
3-{[4-(2-ethoxyphenyl)-2,6-difluorophenyl]carbamoyl}thiophene-2-carboxylic acid::Biphenyl-4-ylcarbamoyl Thiophene Analog 7

> <Curation/DataSource>
Curated from the literature by BindingDB

> <Article DOI>
10.1016/j.bmcl.2005.10.011

> <PMID>
16246558

> <Patent Number>
?

> <Authors>
Leban, J; Kralik, M; Mies, J; Baumgartner, R; Gassen, M; Tasler, S

> <Link to Ligand in BindingDB>
http://www.bindingdb.org/bind/chemsearch/marvin/MolStructure.jsp?monomerid=16116

> <Link to Ligand-Target Pair in BindingDB>
http://www.bindingdb.org/jsp/dbsearch/PrimarySearch_ki.jsp?energyterm=kJ/mole&tag=r21&monomerid=16116&enzyme=Dihydroorotate+Dehydrogenase+%28DHODH%29&column=ki&startPg=0&Increment=50&submit=Search

> <PubChem CID>
23647300

> <PubChem SID>
46516375

$$$$

  Mrv2115 07222212352D          

 22 23  0  0  0  0            999 V2000
   -4.2664   -4.0914    0.0000 C   0  0  0  0  0  0  0  0  0  0  0  0
   -3.5520   -4.5039    0.0000 C   0  0  0  0  0  0  0  0  0  0  0  0
   -2.8375   -4.0914    0.0000 C   0  0  0  0  0  0  0  0  0  0  0  0
   -2.1230   -4.5039    0.0000 C   0  0  0  0  0  0  0  0  0  0  0  0
   -1.4086   -4.0914    0.0000 C   0  0  0  0  0  0  0  0  0  0  0  0
   -0.6941   -4.5039    0.0000 C   0  0  0  0  0  0  0  0  0  0  0  0
    0.0204   -4.0914    0.0000 C   0  0  0  0  0  0  0  0  0  0  0  0
    0.1066   -3.2709    0.0000 O   0  0  0  0  0  0  0  0  0  0  0  0
    0.9136   -3.0993    0.0000 N   0  0  0  0  0  0  0  0  0  0  0  0
    1.3261   -3.8138    0.0000 C   0  0  0  0  0  0  0  0  0  0  0  0
    0.7741   -4.4269    0.0000 C   0  0  0  0  0  0  0  0  0  0  0  0
    0.9456   -5.2339    0.0000 C   0  0  0  0  0  0  0  0  0  0  0  0
    0.3325   -5.7859    0.0000 S   0  0  0  0  0  0  0  0  0  0  0  0
    1.7302   -5.4888    0.0000 N   0  0  0  0  0  0  0  0  0  0  0  0
    2.3433   -4.9368    0.0000 C   0  0  0  0  0  0  0  0  0  0  0  0
    2.1718   -4.1298    0.0000 C   0  0  0  0  0  0  0  0  0  0  0  0
    2.7849   -3.5778    0.0000 C   0  0  0  0  0  0  0  0  0  0  0  0
    3.5695   -3.8327    0.0000 C   0  0  0  0  0  0  0  0  0  0  0  0
    4.1826   -3.2807    0.0000 C   0  0  0  0  0  0  0  0  0  0  0  0
    4.7957   -2.7287    0.0000 N   0  0  0  0  0  0  0  0  0  0  0  0
    3.7410   -4.6397    0.0000 C   0  0  0  0  0  0  0  0  0  0  0  0
    3.1279   -5.1917    0.0000 C   0  0  0  0  0  0  0  0  0  0  0  0
  1  2  1  0  0  0  0
  2  3  1  0  0  0  0
  3  4  1  0  0  0  0
  4  5  1  0  0  0  0
  5  6  1  0  0  0  0
  6  7  1  0  0  0  0
  7  8  4  0  0  0  0
  8  9  4  0  0  0  0
  9 10  4  0  0  0  0
 10 11  4  0  0  0  0
  7 11  4  0  0  0  0
 11 12  1  0  0  0  0
 12 13  2  0  0  0  0
 12 14  1  0  0  0  0
 14 15  1  0  0  0  0
 15 16  4  0  0  0  0
 16 17  4  0  0  0  0
 17 18  4  0  0  0  0
 18 19  1  0  0  0  0
 19 20  3  0  0  0  0
 18 21  4  0  0  0  0
 21 22  4  0  0  0  0
 15 22  4  0  0  0  0
M  END
> <IC50(uM)>
50.0

> <Outcome>
0.0

> <BindingDB ID>
50123296

> <BindingDB MonomerID>
50071388

> <BindingDB Ligand Name>
5-Hexyl-isoxazole-4-carbothioic acid (4-cyano-phenyl)-amide::CHEMBL71958

> <Curation/DataSource>
ChEMBL

> <Article DOI>
10.1016/s0960-894x(98)00365-5

> <PMID>
9873513

> <Patent Number>
?

> <Authors>
Albert, R; Knecht, H; Andersen, E; Hungerford, V; Schreier, MH; Papageorgiou, C

> <Link to Ligand in BindingDB>
http://www.bindingdb.org/bind/chemsearch/marvin/MolStructure.jsp?monomerid=50071388

> <Link to Ligand-Target Pair in BindingDB>
http://www.bindingdb.org/jsp/dbsearch/PrimarySearch_ki.jsp?energyterm=kJ/mole&tag=r21&monomerid=50071388&enzyme=Dihydroorotate+dehydrogenase&column=ki&startPg=0&Increment=50&submit=Search

> <PubChem CID>
44310720

> <PubChem SID>
103965142

$$$$

  Mrv2115 07222212352D          

 28 31  0  0  0  0            999 V2000
    2.1434   -2.8875    0.0000 O   0  0  0  0  0  0  0  0  0  0  0  0
    1.4289   -2.4750    0.0000 C   0  0  0  0  0  0  0  0  0  0  0  0
    0.7145   -2.8875    0.0000 O   0  0  0  0  0  0  0  0  0  0  0  0
    1.4289   -1.6500    0.0000 C   0  0  0  0  0  0  0  0  0  0  0  0
    0.7145   -1.2375    0.0000 C   0  0  0  0  0  0  0  0  0  0  0  0
    0.0000   -1.6500    0.0000 O   0  0  0  0  0  0  0  0  0  0  0  0
    0.7145   -0.4125    0.0000 C   0  0  0  0  0  0  0  0  0  0  0  0
    0.0000    0.0000    0.0000 C   0  0  0  0  0  0  0  0  0  0  0  0
   -0.7145   -0.4125    0.0000 C   0  0  0  0  0  0  0  0  0  0  0  0
   -1.4289    0.0000    0.0000 C   0  0  0  0  0  0  0  0  0  0  0  0
   -1.4289    0.8250    0.0000 C   0  0  0  0  0  0  0  0  0  0  0  0
   -2.1434    1.2375    0.0000 C   0  0  0  0  0  0  0  0  0  0  0  0
   -2.8579    0.8250    0.0000 C   0  0  0  0  0  0  0  0  0  0  0  0
   -3.5724    1.2375    0.0000 C   0  0  0  0  0  0  0  0  0  0  0  0
   -3.5724    2.0625    0.0000 C   0  0  0  0  0  0  0  0  0  0  0  0
   -4.2868    2.4750    0.0000 O   0  0  0  0  0  0  0  0  0  0  0  0
   -2.8579    2.4750    0.0000 C   0  0  0  0  0  0  0  0  0  0  0  0
   -2.1434    2.0625    0.0000 C   0  0  0  0  0  0  0  0  0  0  0  0
   -0.7145    1.2375    0.0000 C   0  0  0  0  0  0  0  0  0  0  0  0
    0.0000    0.8250    0.0000 C   0  0  0  0  0  0  0  0  0  0  0  0
    1.4289    0.0000    0.0000 N   0  0  0  0  0  0  0  0  0  0  0  0
    2.1434   -0.4125    0.0000 C   0  0  0  0  0  0  0  0  0  0  0  0
    2.8579    0.0000    0.0000 C   0  0  0  0  0  0  0  0  0  0  0  0
    3.5724   -0.4125    0.0000 C   0  0  0  0  0  0  0  0  0  0  0  0
    3.5724   -1.2375    0.0000 C   0  0  0  0  0  0  0  0  0  0  0  0
    4.2868   -1.6500    0.0000 F   0  0  0  0  0  0  0  0  0  0  0  0
    2.8579   -1.6500    0.0000 C   0  0  0  0  0  0  0  0  0  0  0  0
    2.1434   -1.2375    0.0000 C   0  0  0  0  0  0  0  0  0  0  0  0
  1  2  2  0  0  0  0
  2  3  1  0  0  0  0
  2  4  1  0  0  0  0
  4  5  4  0  0  0  0
  5  6  1  0  0  0  0
  5  7  4  0  0  0  0
  7  8  1  0  0  0  0
  8  9  4  0  0  0  0
  9 10  4  0  0  0  0
 10 11  4  0  0  0  0
 11 12  1  0  0  0  0
 12 13  4  0  0  0  0
 13 14  4  0  0  0  0
 14 15  4  0  0  0  0
 15 16  1  0  0  0  0
 15 17  4  0  0  0  0
 17 18  4  0  0  0  0
 12 18  4  0  0  0  0
 11 19  4  0  0  0  0
 19 20  4  0  0  0  0
  8 20  4  0  0  0  0
  7 21  4  0  0  0  0
 21 22  4  0  0  0  0
 22 23  4  0  0  0  0
 23 24  4  0  0  0  0
 24 25  4  0  0  0  0
 25 26  1  0  0  0  0
 25 27  4  0  0  0  0
 27 28  4  0  0  0  0
  4 28  4  0  0  0  0
 22 28  4  0  0  0  0
M  END
> <IC50(uM)>
0.007

> <Outcome>
1.0

> <BindingDB ID>
50841888

> <BindingDB MonomerID>
50201919

> <BindingDB Ligand Name>
6-fluoro-3-hydroxy-2-(4'-hydroxy-biphenyl-4-yl)-quinoline-4-carboxylic acid::CHEMBL386159

> <Curation/DataSource>
ChEMBL

> <Article DOI>
10.1021/jm0602256

> <PMID>
17201408

> <Patent Number>
?

> <Authors>
Kaila, N; Janz, K; DeBernardo, S; Bedard, PW; Camphausen, RT; Tam, S; Tsao, DH; Keith, JC; Nickerson-Nutter, C; Shilling, A; Young-Sciame, R; Wang, Q

> <Link to Ligand in BindingDB>
http://www.bindingdb.org/bind/chemsearch/marvin/MolStructure.jsp?monomerid=50201919

> <Link to Ligand-Target Pair in BindingDB>
http://www.bindingdb.org/jsp/dbsearch/PrimarySearch_ki.jsp?energyterm=kJ/mole&tag=r21&monomerid=50201919&enzyme=Dihydroorotate+dehydrogenase&column=ki&startPg=0&Increment=50&submit=Search

> <PubChem CID>
54708676

> <PubChem SID>
104081570

$$$$

  Mrv2115 07222212352D          

 22 25  0  0  0  0            999 V2000
    4.0668    2.3479    0.0000 C   0  0  0  0  0  0  0  0  0  0  0  0
    3.3523    1.9354    0.0000 C   0  0  0  0  0  0  0  0  0  0  0  0
    3.3523    1.1104    0.0000 C   0  0  0  0  0  0  0  0  0  0  0  0
    2.6378    0.6979    0.0000 C   0  0  0  0  0  0  0  0  0  0  0  0
    2.6378   -0.1271    0.0000 F   0  0  0  0  0  0  0  0  0  0  0  0
    1.9233    1.1104    0.0000 C   0  0  0  0  0  0  0  0  0  0  0  0
    1.1387    0.8555    0.0000 N   0  0  0  0  0  0  0  0  0  0  0  0
    0.6538    1.5229    0.0000 C   0  0  0  0  0  0  0  0  0  0  0  0
    1.1387    2.1904    0.0000 N   0  0  0  0  0  0  0  0  0  0  0  0
    0.8838    2.9750    0.0000 C   0  0  0  0  0  0  0  0  0  0  0  0
    0.0992    3.2299    0.0000 C   0  0  0  0  0  0  0  0  0  0  0  0
    0.0992    4.0549    0.0000 C   0  0  0  0  0  0  0  0  0  0  0  0
    0.8838    4.3099    0.0000 C   0  0  0  0  0  0  0  0  0  0  0  0
    1.1387    5.0945    0.0000 C   0  0  0  0  0  0  0  0  0  0  0  0
    1.9457    5.2660    0.0000 O   0  0  0  0  0  0  0  0  0  0  0  0
    0.5867    5.7076    0.0000 N   0  0  0  0  0  0  0  0  0  0  0  0
    0.8416    6.4922    0.0000 C   0  0  0  0  0  0  0  0  0  0  0  0
    0.6701    7.2992    0.0000 C   0  0  0  0  0  0  0  0  0  0  0  0
    1.4547    7.0443    0.0000 C   0  0  0  0  0  0  0  0  0  0  0  0
    1.3687    3.6424    0.0000 S   0  0  0  0  0  0  0  0  0  0  0  0
    1.9233    1.9354    0.0000 C   0  0  0  0  0  0  0  0  0  0  0  0
    2.6378    2.3479    0.0000 C   0  0  0  0  0  0  0  0  0  0  0  0
  1  2  1  0  0  0  0
  2  3  4  0  0  0  0
  3  4  4  0  0  0  0
  4  5  1  0  0  0  0
  4  6  4  0  0  0  0
  6  7  4  0  0  0  0
  7  8  4  0  0  0  0
  8  9  4  0  0  0  0
  9 10  1  0  0  0  0
 10 11  4  0  0  0  0
 11 12  4  0  0  0  0
 12 13  4  0  0  0  0
 13 14  1  0  0  0  0
 14 15  2  0  0  0  0
 14 16  1  0  0  0  0
 16 17  1  0  0  0  0
 17 18  1  0  0  0  0
 18 19  1  0  0  0  0
 17 19  1  0  0  0  0
 13 20  4  0  0  0  0
 10 20  4  0  0  0  0
  9 21  4  0  0  0  0
  6 21  4  0  0  0  0
 21 22  4  0  0  0  0
  2 22  4  0  0  0  0
M  END
> <IC50(uM)>
3.1

> <Outcome>
0.0

> <BindingDB ID>
50924669

> <BindingDB MonomerID>
50379150

> <BindingDB Ligand Name>
CHEMBL2012961

> <Curation/DataSource>
ChEMBL

> <Article DOI>
10.1021/ml200143c

> <PMID>
24900364

> <Patent Number>
?

> <Authors>
Skerlj, RT; Bastos, CM; Booker, ML; Kramer, ML; Barker, RH; Celatka, CA; Munoz, B; Sidhu, AB; Cortese, JF; Wittlin, S; Papastogiannidis, P; Angulo-Barturen, I; Jimenez-Diaz, MB; Sybertz, E

> <Link to Ligand in BindingDB>
http://www.bindingdb.org/bind/chemsearch/marvin/MolStructure.jsp?monomerid=50379150

> <Link to Ligand-Target Pair in BindingDB>
http://www.bindingdb.org/jsp/dbsearch/PrimarySearch_ki.jsp?energyterm=kJ/mole&tag=r21&monomerid=50379150&enzyme=Dihydroorotate+dehydrogenase&column=ki&startPg=0&Increment=50&submit=Search

> <PubChem CID>
70685311

> <PubChem SID>
160858233

$$$$

  Mrv2115 07222212352D          

 32 34  0  0  0  0            999 V2000
    2.1434   -3.7125    0.0000 C   0  0  0  0  0  0  0  0  0  0  0  0
    2.8579   -4.1250    0.0000 C   0  0  0  0  0  0  0  0  0  0  0  0
    3.5724   -3.7125    0.0000 C   0  0  0  0  0  0  0  0  0  0  0  0
    4.2868   -4.1250    0.0000 C   0  0  0  0  0  0  0  0  0  0  0  0
    4.2868   -4.9500    0.0000 C   0  0  0  0  0  0  0  0  0  0  0  0
    5.0013   -3.7125    0.0000 O   0  0  0  0  0  0  0  0  0  0  0  0
    5.0013   -2.8875    0.0000 C   0  0  0  0  0  0  0  0  0  0  0  0
    4.2868   -2.4750    0.0000 C   0  0  0  0  0  0  0  0  0  0  0  0
    4.2868   -1.6500    0.0000 C   0  0  0  0  0  0  0  0  0  0  0  0
    3.5724   -1.2375    0.0000 N   0  0  0  0  0  0  0  0  0  0  0  0
    2.8187   -1.5731    0.0000 N   0  0  0  0  0  0  0  0  0  0  0  0
    2.2666   -0.9600    0.0000 C   0  0  0  0  0  0  0  0  0  0  0  0
    1.4462   -1.0462    0.0000 C   0  0  0  0  0  0  0  0  0  0  0  0
    1.1106   -1.7999    0.0000 C   0  0  0  0  0  0  0  0  0  0  0  0
    2.6791   -0.2455    0.0000 N   0  0  0  0  0  0  0  0  0  0  0  0
    2.3436    0.5082    0.0000 C   0  0  0  0  0  0  0  0  0  0  0  0
    3.4861   -0.4170    0.0000 C   0  0  0  0  0  0  0  0  0  0  0  0
    4.0992    0.1350    0.0000 O   0  0  0  0  0  0  0  0  0  0  0  0
    5.0013   -1.2375    0.0000 C   0  0  0  0  0  0  0  0  0  0  0  0
    5.0013   -0.4125    0.0000 F   0  0  0  0  0  0  0  0  0  0  0  0
    5.7158   -1.6500    0.0000 C   0  0  0  0  0  0  0  0  0  0  0  0
    5.7158   -2.4750    0.0000 C   0  0  0  0  0  0  0  0  0  0  0  0
    6.4302   -2.8875    0.0000 C   0  0  0  0  0  0  0  0  0  0  0  0
    6.4302   -3.7125    0.0000 O   0  0  0  0  0  0  0  0  0  0  0  0
    7.1447   -2.4750    0.0000 N   0  0  0  0  0  0  0  0  0  0  0  0
    7.8592   -2.8875    0.0000 C   0  0  0  0  0  0  0  0  0  0  0  0
    8.5737   -2.4750    0.0000 C   0  0  0  0  0  0  0  0  0  0  0  0
    9.2881   -2.8875    0.0000 C   0  0  0  0  0  0  0  0  0  0  0  0
    9.2881   -3.7125    0.0000 C   0  0  0  0  0  0  0  0  0  0  0  0
    8.5737   -4.1250    0.0000 C   0  0  0  0  0  0  0  0  0  0  0  0
    7.8592   -3.7125    0.0000 C   0  0  0  0  0  0  0  0  0  0  0  0
    7.1447   -4.1250    0.0000 F   0  0  0  0  0  0  0  0  0  0  0  0
  1  2  1  0  0  0  0
  2  3  1  0  0  0  0
  3  4  1  0  0  0  0
  4  5  1  0  0  0  0
  4  6  1  0  0  0  0
  6  7  1  0  0  0  0
  7  8  4  0  0  0  0
  8  9  4  0  0  0  0
  9 10  1  0  0  0  0
 10 11  4  0  0  0  0
 11 12  4  0  0  0  0
 12 13  1  0  0  0  0
 13 14  1  0  0  0  0
 12 15  4  0  0  0  0
 15 16  1  0  0  0  0
 15 17  4  0  0  0  0
 10 17  4  0  0  0  0
 17 18  2  0  0  0  0
  9 19  4  0  0  0  0
 19 20  1  0  0  0  0
 19 21  4  0  0  0  0
 21 22  4  0  0  0  0
  7 22  4  0  0  0  0
 22 23  1  0  0  0  0
 23 24  2  0  0  0  0
 23 25  1  0  0  0  0
 25 26  1  0  0  0  0
 26 27  4  0  0  0  0
 27 28  4  0  0  0  0
 28 29  4  0  0  0  0
 29 30  4  0  0  0  0
 30 31  4  0  0  0  0
 26 31  4  0  0  0  0
 31 32  1  0  0  0  0
M  END
> <IC50(uM)>
0.10865

> <Outcome>
1.0

> <BindingDB ID>
972468; 1098622; 972467; 1098621

> <BindingDB MonomerID>
470360

> <BindingDB Ligand Name>
4-(3-ethyl-4-methyl-5-oxo-4,5-dihydro-1H-1,2,4-triazol-1-yl)-5-fluoro-N-(2-fluorophenyl)-2-[(2S)-pentan-2-yloxy]benzamide::US10815215, Example 19; 4-(3-ethyl-4-methyl-5-oxo-4,5-dihydro-1H-1,2,4-triazol-1-yl)-5-fluoro-N-(2-fluorophenyl)-2-[(2S)-pentan-2-yloxy]benzamide::US10815215, Example 19::US11130745, Example 19

> <Curation/DataSource>
US Patent

> <Article DOI>
?

> <PMID>
?

> <Patent Number>
US10815215; US11130745

> <Authors>
Gradl, SN; Nguyen, D; Eis, K; Gunther, J; Stellfeld, T; Janzer, A; Christian, S; Muller, T; Sheikh, SE; Zhou, HJ; Zhao, C; Sykes, DB; Ferrara, SJ; Liu, K; Krober, M; Merz, C; Niehues, M; Schafer, M; Zimmermann, K; Nising, CF; Gradl, SN; Nguyen, D; Eis, K; Gunther, J; Stellfeld, T; Janzer, A; Christian, S; Muller, T; Sheikh, SE; Sykes, DB; Ferrara, SJ; Krober, M; Merz, C; Niehues, M; Schafer, M; Zimmermann, K; Nising, CF

> <Link to Ligand in BindingDB>
http://www.bindingdb.org/bind/chemsearch/marvin/MolStructure.jsp?monomerid=470360

> <Link to Ligand-Target Pair in BindingDB>
http://www.bindingdb.org/jsp/dbsearch/PrimarySearch_ki.jsp?energyterm=kJ/mole&tag=r21&monomerid=470360&enzyme=Dihydroorotate+dehydrogenase&column=ki&startPg=0&Increment=50&submit=Search

> <PubChem CID>
134470123

> <PubChem SID>
441609537

$$$$

  Mrv2115 07222212352D          

 24 26  0  0  0  0            999 V2000
    2.1434    2.0625    0.0000 O   0  0  0  0  0  0  0  0  0  0  0  0
    2.1434    1.2375    0.0000 C   0  0  0  0  0  0  0  0  0  0  0  0
    1.4289    0.8250    0.0000 O   0  0  0  0  0  0  0  0  0  0  0  0
    2.8579    0.8250    0.0000 C   0  0  0  0  0  0  0  0  0  0  0  0
    3.5724    1.2375    0.0000 C   0  0  0  0  0  0  0  0  0  0  0  0
    4.2868    0.8250    0.0000 C   0  0  0  0  0  0  0  0  0  0  0  0
    4.2868   -0.0000    0.0000 C   0  0  0  0  0  0  0  0  0  0  0  0
    3.5724   -0.4125    0.0000 C   0  0  0  0  0  0  0  0  0  0  0  0
    2.8579    0.0000    0.0000 C   0  0  0  0  0  0  0  0  0  0  0  0
    2.1434   -0.4125    0.0000 N   0  0  0  0  0  0  0  0  0  0  0  0
    1.4289   -0.0000    0.0000 N   0  0  0  0  0  0  0  0  0  0  0  0
    0.7145   -0.4125    0.0000 C   0  0  0  0  0  0  0  0  0  0  0  0
    0.7145   -1.2375    0.0000 C   0  0  0  0  0  0  0  0  0  0  0  0
    1.3819   -1.7224    0.0000 C   0  0  0  0  0  0  0  0  0  0  0  0
    1.1270   -2.5070    0.0000 C   0  0  0  0  0  0  0  0  0  0  0  0
    0.3020   -2.5070    0.0000 C   0  0  0  0  0  0  0  0  0  0  0  0
   -0.1830   -3.1745    0.0000 C   0  0  0  0  0  0  0  0  0  0  0  0
    0.1526   -3.9282    0.0000 C   0  0  0  0  0  0  0  0  0  0  0  0
   -0.3323   -4.5956    0.0000 C   0  0  0  0  0  0  0  0  0  0  0  0
   -1.1528   -4.5094    0.0000 C   0  0  0  0  0  0  0  0  0  0  0  0
   -1.4884   -3.7557    0.0000 C   0  0  0  0  0  0  0  0  0  0  0  0
   -1.0034   -3.0882    0.0000 C   0  0  0  0  0  0  0  0  0  0  0  0
   -1.3390   -2.3346    0.0000 Cl  0  0  0  0  0  0  0  0  0  0  0  0
    0.0470   -1.7224    0.0000 O   0  0  0  0  0  0  0  0  0  0  0  0
  1  2  2  0  0  0  0
  2  3  1  0  0  0  0
  2  4  1  0  0  0  0
  4  5  4  0  0  0  0
  5  6  4  0  0  0  0
  6  7  4  0  0  0  0
  7  8  4  0  0  0  0
  8  9  4  0  0  0  0
  4  9  4  0  0  0  0
 10  9  1  4  0  0  0
 10 11  2  0  0  0  0
 11 12  1  0  0  0  0
 12 13  1  0  0  0  0
 13 14  4  0  0  0  0
 14 15  4  0  0  0  0
 15 16  4  0  0  0  0
 16 17  1  0  0  0  0
 17 18  4  0  0  0  0
 18 19  4  0  0  0  0
 19 20  4  0  0  0  0
 20 21  4  0  0  0  0
 21 22  4  0  0  0  0
 17 22  4  0  0  0  0
 22 23  1  0  0  0  0
 16 24  4  0  0  0  0
 13 24  4  0  0  0  0
M  END
> <IC50(uM)>
0.5

> <Outcome>
1.0

> <BindingDB ID>
50565529

> <BindingDB MonomerID>
50313601

> <BindingDB Ligand Name>
2-(2-((5-(2-chlorophenyl)furan-2-yl)methylene)hydrazinyl)benzoic acid::2-[(2E)-2-{[5-(2-chlorophenyl)furan-2-yl]methylidene}hydrazino]benzoic acid::CHEMBL1088743

> <Curation/DataSource>
ChEMBL

> <Article DOI>
10.1016/j.bmcl.2010.01.115

> <PMID>
20153645

> <Patent Number>
?

> <Authors>
McLean, LR; Zhang, Y; Degnen, W; Peppard, J; Cabel, D; Zou, C; Tsay, JT; Subramaniam, A; Vaz, RJ; Li, Y

> <Link to Ligand in BindingDB>
http://www.bindingdb.org/bind/chemsearch/marvin/MolStructure.jsp?monomerid=50313601

> <Link to Ligand-Target Pair in BindingDB>
http://www.bindingdb.org/jsp/dbsearch/PrimarySearch_ki.jsp?energyterm=kJ/mole&tag=r21&monomerid=50313601&enzyme=Dihydroorotate+dehydrogenase&column=ki&startPg=0&Increment=50&submit=Search

> <PubChem CID>
9663654

> <PubChem SID>
104147962

$$$$

  Mrv2115 07222212352D          

 34 36  0  0  0  0            999 V2000
   -1.4289    8.0036    0.0000 C   0  0  0  0  0  0  0  0  0  0  0  0
   -0.7145    8.4161    0.0000 C   0  0  0  0  0  0  0  0  0  0  0  0
   -0.7145    9.2411    0.0000 C   0  0  0  0  0  0  0  0  0  0  0  0
   -0.0000    9.6536    0.0000 C   0  0  0  0  0  0  0  0  0  0  0  0
    0.7145    9.2411    0.0000 C   0  0  0  0  0  0  0  0  0  0  0  0
    0.7145    8.4161    0.0000 C   0  0  0  0  0  0  0  0  0  0  0  0
    1.4289    8.0036    0.0000 F   0  0  0  0  0  0  0  0  0  0  0  0
   -0.0000    8.0036    0.0000 C   0  0  0  0  0  0  0  0  0  0  0  0
   -0.0000    7.1786    0.0000 N   0  0  0  0  0  0  0  0  0  0  0  0
    0.7145    6.7661    0.0000 C   0  0  0  0  0  0  0  0  0  0  0  0
    1.4289    7.1786    0.0000 O   0  0  0  0  0  0  0  0  0  0  0  0
    0.7145    5.9411    0.0000 C   0  0  0  0  0  0  0  0  0  0  0  0
    1.4289    5.5286    0.0000 C   0  0  0  0  0  0  0  0  0  0  0  0
    1.4289    4.7036    0.0000 C   0  0  0  0  0  0  0  0  0  0  0  0
    2.1434    4.2911    0.0000 F   0  0  0  0  0  0  0  0  0  0  0  0
    0.7145    4.2911    0.0000 C   0  0  0  0  0  0  0  0  0  0  0  0
    0.7145    3.4661    0.0000 N   0  0  0  0  0  0  0  0  0  0  0  0
    0.0470    2.9812    0.0000 N   0  0  0  0  0  0  0  0  0  0  0  0
    0.3020    2.1965    0.0000 C   0  0  0  0  0  0  0  0  0  0  0  0
   -0.1830    1.5291    0.0000 C   0  0  0  0  0  0  0  0  0  0  0  0
    0.1526    0.7754    0.0000 O   0  0  0  0  0  0  0  0  0  0  0  0
    1.1270    2.1965    0.0000 N   0  0  0  0  0  0  0  0  0  0  0  0
    1.6119    1.5291    0.0000 C   0  0  0  0  0  0  0  0  0  0  0  0
    1.3819    2.9812    0.0000 C   0  0  0  0  0  0  0  0  0  0  0  0
    2.1665    3.2361    0.0000 O   0  0  0  0  0  0  0  0  0  0  0  0
    0.0000    4.7036    0.0000 C   0  0  0  0  0  0  0  0  0  0  0  0
   -0.0000    5.5286    0.0000 C   0  0  0  0  0  0  0  0  0  0  0  0
   -0.7145    5.9411    0.0000 O   0  0  0  0  0  0  0  0  0  0  0  0
   -1.4289    5.5286    0.0000 C   0  0  0  0  0  0  0  0  0  0  0  0
   -1.4289    4.7036    0.0000 C   0  0  0  0  0  0  0  0  0  0  0  0
   -2.1434    5.9411    0.0000 C   0  0  0  0  0  0  0  0  0  0  0  0
   -1.7309    6.6555    0.0000 F   0  0  0  0  0  0  0  0  0  0  0  0
   -2.5559    5.2266    0.0000 F   0  0  0  0  0  0  0  0  0  0  0  0
   -2.8579    6.3536    0.0000 F   0  0  0  0  0  0  0  0  0  0  0  0
  1  2  1  0  0  0  0
  2  3  4  0  0  0  0
  3  4  4  0  0  0  0
  4  5  4  0  0  0  0
  5  6  4  0  0  0  0
  6  7  1  0  0  0  0
  6  8  4  0  0  0  0
  2  8  4  0  0  0  0
  8  9  1  0  0  0  0
  9 10  1  0  0  0  0
 10 11  2  0  0  0  0
 10 12  1  0  0  0  0
 12 13  4  0  0  0  0
 13 14  4  0  0  0  0
 14 15  1  0  0  0  0
 14 16  4  0  0  0  0
 16 17  1  0  0  0  0
 17 18  4  0  0  0  0
 18 19  4  0  0  0  0
 19 20  1  0  0  0  0
 20 21  1  0  0  0  0
 19 22  4  0  0  0  0
 22 23  1  0  0  0  0
 22 24  4  0  0  0  0
 17 24  4  0  0  0  0
 24 25  2  0  0  0  0
 16 26  4  0  0  0  0
 26 27  4  0  0  0  0
 12 27  4  0  0  0  0
 27 28  1  0  0  0  0
 28 29  1  0  0  0  0
 29 30  1  0  0  0  0
 29 31  1  0  0  0  0
 31 32  1  0  0  0  0
 31 33  1  0  0  0  0
 31 34  1  0  0  0  0
M  END
> <IC50(uM)>
0.0195

> <Outcome>
1.0

> <BindingDB ID>
972585; 1098739

> <BindingDB MonomerID>
470461

> <BindingDB Ligand Name>
5-fluoro-N-(2-fluoro-6-methylphenyl)-4-[3-(hydroxymethyl)-4-methyl-5-oxo-4,5-dihydro-1H-1,2,4-triazol-1-yl]-2-{[(2S)-1,1,1-trifluoropropan-2-yl]oxy}benzamide::US10815215, Example 127; 5-fluoro-N-(2-fluoro-6-methylphenyl)-4-[3-(hydroxymethyl)-4-methyl-5-oxo-4,5-dihydro-1H-1,2,4-triazol-1-yl]-2-{[(2S)-1,1,1-trifluoropropan-2-yl]oxy}benzamide::US10815215, Example 127::US11130745, Example 127

> <Curation/DataSource>
US Patent

> <Article DOI>
?

> <PMID>
?

> <Patent Number>
US10815215; US11130745

> <Authors>
Gradl, SN; Nguyen, D; Eis, K; Gunther, J; Stellfeld, T; Janzer, A; Christian, S; Muller, T; Sheikh, SE; Zhou, HJ; Zhao, C; Sykes, DB; Ferrara, SJ; Liu, K; Krober, M; Merz, C; Niehues, M; Schafer, M; Zimmermann, K; Nising, CF; Gradl, SN; Nguyen, D; Eis, K; Gunther, J; Stellfeld, T; Janzer, A; Christian, S; Muller, T; Sheikh, SE; Sykes, DB; Ferrara, SJ; Krober, M; Merz, C; Niehues, M; Schafer, M; Zimmermann, K; Nising, CF

> <Link to Ligand in BindingDB>
http://www.bindingdb.org/bind/chemsearch/marvin/MolStructure.jsp?monomerid=470461

> <Link to Ligand-Target Pair in BindingDB>
http://www.bindingdb.org/jsp/dbsearch/PrimarySearch_ki.jsp?energyterm=kJ/mole&tag=r21&monomerid=470461&enzyme=Dihydroorotate+dehydrogenase&column=ki&startPg=0&Increment=50&submit=Search

> <PubChem CID>
134470194

> <PubChem SID>
441609638

$$$$

  Mrv2115 07222212352D          

 26 28  0  0  0  0            999 V2000
    0.0000    3.3000    0.0000 C   0  0  0  0  0  0  0  0  0  0  0  0
    0.0000    2.4750    0.0000 O   0  0  0  0  0  0  0  0  0  0  0  0
    0.7145    2.0625    0.0000 C   0  0  0  0  0  0  0  0  0  0  0  0
    1.4289    2.4750    0.0000 O   0  0  0  0  0  0  0  0  0  0  0  0
    0.7145    1.2375    0.0000 C   0  0  0  0  0  0  0  0  0  0  0  0
    1.4289    0.8250    0.0000 C   0  0  0  0  0  0  0  0  0  0  0  0
    1.4289   -0.0000    0.0000 C   0  0  0  0  0  0  0  0  0  0  0  0
    0.7145   -0.4125    0.0000 C   0  0  0  0  0  0  0  0  0  0  0  0
    0.7145   -1.2375    0.0000 N   0  0  0  0  0  0  0  0  0  0  0  0
    1.3819   -1.7224    0.0000 C   0  0  0  0  0  0  0  0  0  0  0  0
    1.1270   -2.5070    0.0000 C   0  0  0  0  0  0  0  0  0  0  0  0
    1.6119   -3.1745    0.0000 C   0  0  0  0  0  0  0  0  0  0  0  0
    2.4324   -3.0882    0.0000 C   0  0  0  0  0  0  0  0  0  0  0  0
    2.7679   -2.3346    0.0000 C   0  0  0  0  0  0  0  0  0  0  0  0
    3.5884   -2.2483    0.0000 O   0  0  0  0  0  0  0  0  0  0  0  0
    2.2830   -1.6671    0.0000 O   0  0  0  0  0  0  0  0  0  0  0  0
    2.9173   -3.7557    0.0000 N   0  0  0  0  0  0  0  0  0  0  0  0
    2.5817   -4.5094    0.0000 C   0  0  0  0  0  0  0  0  0  0  0  0
    3.0667   -5.1768    0.0000 O   0  0  0  0  0  0  0  0  0  0  0  0
    1.7613   -4.5956    0.0000 N   0  0  0  0  0  0  0  0  0  0  0  0
    1.2763   -3.9282    0.0000 C   0  0  0  0  0  0  0  0  0  0  0  0
    0.4559   -4.0144    0.0000 O   0  0  0  0  0  0  0  0  0  0  0  0
    0.3020   -2.5070    0.0000 N   0  0  0  0  0  0  0  0  0  0  0  0
    0.0470   -1.7224    0.0000 N   0  0  0  0  0  0  0  0  0  0  0  0
    0.0000    0.0000    0.0000 C   0  0  0  0  0  0  0  0  0  0  0  0
    0.0000    0.8250    0.0000 C   0  0  0  0  0  0  0  0  0  0  0  0
  1  2  1  0  0  0  0
  2  3  1  0  0  0  0
  3  4  2  0  0  0  0
  3  5  1  0  0  0  0
  5  6  4  0  0  0  0
  6  7  4  0  0  0  0
  7  8  4  0  0  0  0
  8  9  1  0  0  0  0
  9 10  4  0  0  0  0
 10 11  4  0  0  0  0
 11 12  1  0  0  0  0
 12 13  4  0  0  0  0
 13 14  1  0  0  0  0
 14 15  2  0  0  0  0
 14 16  1  0  0  0  0
 13 17  4  0  0  0  0
 17 18  4  0  0  0  0
 18 19  2  0  0  0  0
 18 20  4  0  0  0  0
 20 21  4  0  0  0  0
 12 21  4  0  0  0  0
 21 22  2  0  0  0  0
 11 23  4  0  0  0  0
 23 24  4  0  0  0  0
  9 24  4  0  0  0  0
  8 25  4  0  0  0  0
 25 26  4  0  0  0  0
  5 26  4  0  0  0  0
M  STY  2   1 DAT   2 DAT
M  SAL   1  1  17
M  SDT   1 MRV_IMPLICIT_H                                        
M  SDD   1     0.5304   -0.4125    DR    ALL  0       0  
M  SED   1 IMPL_H1
M  SAL   2  1  20
M  SDT   2 MRV_IMPLICIT_H                                        
M  SDD   2     0.5304   -0.4125    DR    ALL  0       0  
M  SED   2 IMPL_H1
M  END
> <IC50(uM)>
0.839

> <Outcome>
1.0

> <BindingDB ID>
50555295

> <BindingDB MonomerID>
50211729

> <BindingDB Ligand Name>
CHEMBL3927463

> <Curation/DataSource>
ChEMBL

> <Article DOI>
10.1016/j.bmc.2017.01.009

> <PMID>
28118956

> <Patent Number>
?

> <Authors>
Inaoka, DK; Iida, M; Hashimoto, S; Tabuchi, T; Kuranaga, T; Balogun, EO; Honma, T; Tanaka, A; Harada, S; Nara, T; Kita, K; Inoue, M

> <Link to Ligand in BindingDB>
http://www.bindingdb.org/bind/chemsearch/marvin/MolStructure.jsp?monomerid=50211729

> <Link to Ligand-Target Pair in BindingDB>
http://www.bindingdb.org/jsp/dbsearch/PrimarySearch_ki.jsp?energyterm=kJ/mole&tag=r21&monomerid=50211729&enzyme=Dihydroorotate+dehydrogenase&column=ki&startPg=0&Increment=50&submit=Search

> <PubChem CID>
134141516

> <PubChem SID>
104087812

$$$$

  Mrv2115 07222212352D          

 35 38  0  0  0  0            999 V2000
    0.5412   -5.1890    0.0000 C   0  0  0  0  0  0  0  0  0  0  0  0
    1.1543   -5.7410    0.0000 C   0  0  0  0  0  0  0  0  0  0  0  0
    1.9389   -5.4861    0.0000 N   0  0  0  0  0  0  0  0  0  0  0  0
    2.6063   -5.9710    0.0000 C   0  0  0  0  0  0  0  0  0  0  0  0
    2.6063   -6.7960    0.0000 C   0  0  0  0  0  0  0  0  0  0  0  0
    3.0188   -7.5105    0.0000 C   0  0  0  0  0  0  0  0  0  0  0  0
    2.1938   -7.5105    0.0000 C   0  0  0  0  0  0  0  0  0  0  0  0
    3.2738   -5.4861    0.0000 N   0  0  0  0  0  0  0  0  0  0  0  0
    3.0188   -4.7015    0.0000 N   0  0  0  0  0  0  0  0  0  0  0  0
    3.5038   -4.0340    0.0000 C   0  0  0  0  0  0  0  0  0  0  0  0
    3.1682   -3.2804    0.0000 C   0  0  0  0  0  0  0  0  0  0  0  0
    3.6531   -2.6129    0.0000 C   0  0  0  0  0  0  0  0  0  0  0  0
    3.3176   -1.8592    0.0000 O   0  0  0  0  0  0  0  0  0  0  0  0
    2.4971   -1.7730    0.0000 C   0  0  0  0  0  0  0  0  0  0  0  0
    2.0122   -2.4404    0.0000 C   0  0  0  0  0  0  0  0  0  0  0  0
    2.1615   -1.0193    0.0000 C   0  0  0  0  0  0  0  0  0  0  0  0
    2.9152   -0.6838    0.0000 F   0  0  0  0  0  0  0  0  0  0  0  0
    1.4079   -1.3549    0.0000 F   0  0  0  0  0  0  0  0  0  0  0  0
    1.8260   -0.2657    0.0000 F   0  0  0  0  0  0  0  0  0  0  0  0
    4.4736   -2.6992    0.0000 C   0  0  0  0  0  0  0  0  0  0  0  0
    4.9585   -2.0317    0.0000 C   0  0  0  0  0  0  0  0  0  0  0  0
    5.7790   -2.1180    0.0000 O   0  0  0  0  0  0  0  0  0  0  0  0
    4.6230   -1.2780    0.0000 N   0  0  0  0  0  0  0  0  0  0  0  0
    5.1079   -0.6106    0.0000 C   0  0  0  0  0  0  0  0  0  0  0  0
    4.7723    0.1431    0.0000 C   0  0  0  0  0  0  0  0  0  0  0  0
    5.2573    0.8105    0.0000 C   0  0  0  0  0  0  0  0  0  0  0  0
    6.0777    0.7243    0.0000 C   0  0  0  0  0  0  0  0  0  0  0  0
    6.4133   -0.0294    0.0000 C   0  0  0  0  0  0  0  0  0  0  0  0
    5.9284   -0.6968    0.0000 C   0  0  0  0  0  0  0  0  0  0  0  0
    6.2639   -1.4505    0.0000 F   0  0  0  0  0  0  0  0  0  0  0  0
    4.8092   -3.4528    0.0000 C   0  0  0  0  0  0  0  0  0  0  0  0
    4.3242   -4.1203    0.0000 C   0  0  0  0  0  0  0  0  0  0  0  0
    4.6598   -4.8739    0.0000 F   0  0  0  0  0  0  0  0  0  0  0  0
    2.1938   -4.7015    0.0000 C   0  0  0  0  0  0  0  0  0  0  0  0
    1.7089   -4.0340    0.0000 O   0  0  0  0  0  0  0  0  0  0  0  0
  1  2  1  0  0  0  0
  2  3  1  0  0  0  0
  3  4  4  0  0  0  0
  4  5  1  0  0  0  0
  5  6  1  0  0  0  0
  6  7  1  0  0  0  0
  5  7  1  0  0  0  0
  4  8  4  0  0  0  0
  8  9  4  0  0  0  0
  9 10  1  0  0  0  0
 10 11  4  0  0  0  0
 11 12  4  0  0  0  0
 12 13  1  0  0  0  0
 13 14  1  0  0  0  0
 14 15  1  0  0  0  0
 14 16  1  0  0  0  0
 16 17  1  0  0  0  0
 16 18  1  0  0  0  0
 16 19  1  0  0  0  0
 12 20  4  0  0  0  0
 20 21  1  0  0  0  0
 21 22  2  0  0  0  0
 21 23  1  0  0  0  0
 23 24  1  0  0  0  0
 24 25  4  0  0  0  0
 25 26  4  0  0  0  0
 26 27  4  0  0  0  0
 27 28  4  0  0  0  0
 28 29  4  0  0  0  0
 24 29  4  0  0  0  0
 29 30  1  0  0  0  0
 20 31  4  0  0  0  0
 31 32  4  0  0  0  0
 10 32  4  0  0  0  0
 32 33  1  0  0  0  0
  9 34  4  0  0  0  0
  3 34  4  0  0  0  0
 34 35  2  0  0  0  0
M  END
> <IC50(uM)>
0.1

> <Outcome>
1.0

> <BindingDB ID>
972521; 1098675

> <BindingDB MonomerID>
470396

> <BindingDB Ligand Name>
4-(3-cyclopropyl-4-ethyl-5-oxo-4,5-dihydro-1H-1,2,4-triazol-1-yl)-5-fluoro-N-(2-fluorophenyl)-2-{[(2S)-1,1,1-trifluoropropan-2-yl]oxy}benzamide::US10815215, Example 55; 4-(3-cyclopropyl-4-ethyl-5-oxo-4,5-dihydro-1H-1,2,4-triazol-1-yl)-5-fluoro-N-(2-fluorophenyl)-2-{[(2S)-1,1,1-trifluoropropan-2-yl]oxy}benzamide::US10815215, Example 55::US11130745, Example 55

> <Curation/DataSource>
US Patent

> <Article DOI>
?

> <PMID>
?

> <Patent Number>
US10815215; US11130745

> <Authors>
Gradl, SN; Nguyen, D; Eis, K; Gunther, J; Stellfeld, T; Janzer, A; Christian, S; Muller, T; Sheikh, SE; Zhou, HJ; Zhao, C; Sykes, DB; Ferrara, SJ; Liu, K; Krober, M; Merz, C; Niehues, M; Schafer, M; Zimmermann, K; Nising, CF; Gradl, SN; Nguyen, D; Eis, K; Gunther, J; Stellfeld, T; Janzer, A; Christian, S; Muller, T; Sheikh, SE; Sykes, DB; Ferrara, SJ; Krober, M; Merz, C; Niehues, M; Schafer, M; Zimmermann, K; Nising, CF

> <Link to Ligand in BindingDB>
http://www.bindingdb.org/bind/chemsearch/marvin/MolStructure.jsp?monomerid=470396

> <Link to Ligand-Target Pair in BindingDB>
http://www.bindingdb.org/jsp/dbsearch/PrimarySearch_ki.jsp?energyterm=kJ/mole&tag=r21&monomerid=470396&enzyme=Dihydroorotate+dehydrogenase&column=ki&startPg=0&Increment=50&submit=Search

> <PubChem CID>
134470134

> <PubChem SID>
441609573

$$$$

  Mrv2115 07222212352D          

 18 19  0  0  0  0            999 V2000
    1.4289   -1.6500    0.0000 C   0  0  0  0  0  0  0  0  0  0  0  0
    1.4289   -2.4750    0.0000 N   0  0  0  0  0  0  0  0  0  0  0  0
    2.0964   -2.9599    0.0000 N   0  0  0  0  0  0  0  0  0  0  0  0
    1.8414   -3.7445    0.0000 C   0  0  0  0  0  0  0  0  0  0  0  0
    2.3264   -4.4120    0.0000 O   0  0  0  0  0  0  0  0  0  0  0  0
    1.0164   -3.7445    0.0000 C   0  0  0  0  0  0  0  0  0  0  0  0
    0.5315   -4.4120    0.0000 C   0  0  0  0  0  0  0  0  0  0  0  0
   -0.2890   -4.3257    0.0000 O   0  0  0  0  0  0  0  0  0  0  0  0
    0.8671   -5.1657    0.0000 O   0  0  0  0  0  0  0  0  0  0  0  0
    0.7615   -2.9599    0.0000 C   0  0  0  0  0  0  0  0  0  0  0  0
   -0.0231   -2.7050    0.0000 C   0  0  0  0  0  0  0  0  0  0  0  0
   -0.6362   -3.2570    0.0000 O   0  0  0  0  0  0  0  0  0  0  0  0
   -1.4208   -3.0021    0.0000 C   0  0  0  0  0  0  0  0  0  0  0  0
   -2.0339   -3.5541    0.0000 C   0  0  0  0  0  0  0  0  0  0  0  0
   -2.8186   -3.2992    0.0000 C   0  0  0  0  0  0  0  0  0  0  0  0
   -2.9901   -2.4922    0.0000 C   0  0  0  0  0  0  0  0  0  0  0  0
   -2.3770   -1.9402    0.0000 C   0  0  0  0  0  0  0  0  0  0  0  0
   -1.5924   -2.1951    0.0000 C   0  0  0  0  0  0  0  0  0  0  0  0
  1  2  1  0  0  0  0
  2  3  4  0  0  0  0
  3  4  4  0  0  0  0
  4  5  1  0  0  0  0
  4  6  4  0  0  0  0
  6  7  1  0  0  0  0
  7  8  2  0  0  0  0
  7  9  1  0  0  0  0
  6 10  4  0  0  0  0
  2 10  4  0  0  0  0
 10 11  1  0  0  0  0
 11 12  1  0  0  0  0
 12 13  1  0  0  0  0
 13 14  4  0  0  0  0
 14 15  4  0  0  0  0
 15 16  4  0  0  0  0
 16 17  4  0  0  0  0
 17 18  4  0  0  0  0
 13 18  4  0  0  0  0
M  END
> <IC50(uM)>
250.0

> <Outcome>
0.0

> <BindingDB ID>
51241007

> <BindingDB MonomerID>
50507736

> <BindingDB Ligand Name>
CHEMBL4457827

> <Curation/DataSource>
ChEMBL

> <Article DOI>
10.1016/j.ejmech.2018.11.044

> <PMID>
30529545

> <Patent Number>
?

> <Authors>
Pippione, AC; Sainas, S; Goyal, P; Fritzson, I; Cassiano, GC; Giraudo, A; Giorgis, M; Tavella, TA; Bagnati, R; Rolando, B; Caing-Carlsson, R; Costa, FTM; Andrade, CH; Al-Karadaghi, S; Boschi, D; Friemann, R; Lolli, ML

> <Link to Ligand in BindingDB>
http://www.bindingdb.org/bind/chemsearch/marvin/MolStructure.jsp?monomerid=50507736

> <Link to Ligand-Target Pair in BindingDB>
http://www.bindingdb.org/jsp/dbsearch/PrimarySearch_ki.jsp?energyterm=kJ/mole&tag=r21&monomerid=50507736&enzyme=Dihydroorotate+dehydrogenase&column=ki&startPg=0&Increment=50&submit=Search

> <PubChem CID>
155525976

> <PubChem SID>
440716321

$$$$

  Mrv2115 07222212352D          

 38 42  0  0  0  0            999 V2000
    0.0000   -1.6500    0.0000 C   0  0  0  0  0  0  0  0  0  0  0  0
    0.7145   -1.2375    0.0000 C   0  0  0  0  0  0  0  0  0  0  0  0
    0.7145   -0.4125    0.0000 C   0  0  0  0  0  0  0  0  0  0  0  0
    1.4289    0.0000    0.0000 C   0  0  0  0  0  0  0  0  0  0  0  0
    2.1434   -0.4125    0.0000 C   0  0  0  0  0  0  0  0  0  0  0  0
    2.8579    0.0000    0.0000 C   0  0  0  0  0  0  0  0  0  0  0  0
    2.8579    0.8250    0.0000 N   0  0  0  0  0  0  0  0  0  0  0  0
    2.1434    1.2375    0.0000 C   0  0  0  0  0  0  0  0  0  0  0  0
    1.4289    0.8250    0.0000 O   0  0  0  0  0  0  0  0  0  0  0  0
    2.1434    2.0625    0.0000 C   0  0  0  0  0  0  0  0  0  0  0  0
    1.4289    2.4750    0.0000 C   0  0  0  0  0  0  0  0  0  0  0  0
    1.4289    3.3000    0.0000 C   0  0  0  0  0  0  0  0  0  0  0  0
    0.7145    3.7125    0.0000 F   0  0  0  0  0  0  0  0  0  0  0  0
    2.1434    3.7125    0.0000 C   0  0  0  0  0  0  0  0  0  0  0  0
    2.1434    4.5375    0.0000 N   0  0  0  0  0  0  0  0  0  0  0  0
    1.4760    5.0224    0.0000 N   0  0  0  0  0  0  0  0  0  0  0  0
    1.7309    5.8070    0.0000 C   0  0  0  0  0  0  0  0  0  0  0  0
    2.5559    5.8070    0.0000 N   0  0  0  0  0  0  0  0  0  0  0  0
    2.8109    5.0224    0.0000 C   0  0  0  0  0  0  0  0  0  0  0  0
    3.5955    4.7675    0.0000 O   0  0  0  0  0  0  0  0  0  0  0  0
    2.9684    6.5215    0.0000 C   0  0  0  0  0  0  0  0  0  0  0  0
    2.5559    7.2360    0.0000 C   0  0  0  0  0  0  0  0  0  0  0  0
    1.7309    7.2360    0.0000 C   0  0  0  0  0  0  0  0  0  0  0  0
    1.3184    6.5215    0.0000 C   0  0  0  0  0  0  0  0  0  0  0  0
    2.8579    3.3000    0.0000 C   0  0  0  0  0  0  0  0  0  0  0  0
    2.8579    2.4750    0.0000 C   0  0  0  0  0  0  0  0  0  0  0  0
    3.5724    2.0625    0.0000 O   0  0  0  0  0  0  0  0  0  0  0  0
    4.2868    2.4750    0.0000 C   0  0  0  0  0  0  0  0  0  0  0  0
    4.2868    3.3000    0.0000 C   0  0  0  0  0  0  0  0  0  0  0  0
    5.0013    2.0625    0.0000 C   0  0  0  0  0  0  0  0  0  0  0  0
    4.5888    1.3480    0.0000 F   0  0  0  0  0  0  0  0  0  0  0  0
    5.4138    2.7770    0.0000 F   0  0  0  0  0  0  0  0  0  0  0  0
    5.7158    1.6500    0.0000 F   0  0  0  0  0  0  0  0  0  0  0  0
    3.5724   -0.4125    0.0000 C   0  0  0  0  0  0  0  0  0  0  0  0
    3.5724   -1.2375    0.0000 C   0  0  0  0  0  0  0  0  0  0  0  0
    2.8579   -1.6500    0.0000 C   0  0  0  0  0  0  0  0  0  0  0  0
    2.1434   -1.2375    0.0000 C   0  0  0  0  0  0  0  0  0  0  0  0
    1.4289   -1.6500    0.0000 N   0  0  0  0  0  0  0  0  0  0  0  0
  1  2  1  0  0  0  0
  2  3  4  0  0  0  0
  3  4  4  0  0  0  0
  4  5  4  0  0  0  0
  5  6  4  0  0  0  0
  6  7  1  0  0  0  0
  7  8  1  0  0  0  0
  8  9  2  0  0  0  0
  8 10  1  0  0  0  0
 10 11  4  0  0  0  0
 11 12  4  0  0  0  0
 12 13  1  0  0  0  0
 12 14  4  0  0  0  0
 14 15  1  0  0  0  0
 15 16  4  0  0  0  0
 16 17  4  0  0  0  0
 17 18  4  0  0  0  0
 18 19  4  0  0  0  0
 15 19  4  0  0  0  0
 19 20  2  0  0  0  0
 18 21  1  0  0  0  0
 21 22  1  0  0  0  0
 22 23  1  0  0  0  0
 23 24  1  0  0  0  0
 17 24  1  0  0  0  0
 14 25  4  0  0  0  0
 25 26  4  0  0  0  0
 10 26  4  0  0  0  0
 26 27  1  0  0  0  0
 27 28  1  0  0  0  0
 28 29  1  0  0  0  0
 28 30  1  0  0  0  0
 30 31  1  0  0  0  0
 30 32  1  0  0  0  0
 30 33  1  0  0  0  0
  6 34  4  0  0  0  0
 34 35  4  0  0  0  0
 35 36  4  0  0  0  0
 36 37  4  0  0  0  0
  5 37  4  0  0  0  0
 37 38  4  0  0  0  0
  2 38  4  0  0  0  0
M  END
> <IC50(uM)>
0.22

> <Outcome>
1.0

> <BindingDB ID>
1020483

> <BindingDB MonomerID>
490431

> <BindingDB Ligand Name>
5-fluoro-N-(2-methylquinolin-5-yl)-4-(3-oxo-5,6,7,8-tetrahydro[1,2,4]triazolo[4,3-a]pyridin-2(3H)-yl)-2-{[(2S)-1,1,1-trifluoropropan-2-yl]oxy}benzamide::US10968216, Example 99

> <Curation/DataSource>
US Patent

> <Article DOI>
?

> <PMID>
?

> <Patent Number>
US10968216

> <Authors>
Gradl, SN; Nguyen, D; Eis, K; Gunther, J; Stellfeld, T; Janzer, A; Christian, S; Mueller, T; Sheikh, SE; Zhou, HJ; Zhao, C; Sykes, DB; Ferrara, SJ; Liu, K; Herbert, SA; Merz, C; Niehues, M; Nising, CF; Schafer, M; Zimmermann, K; Knablein, J; Thede, K; Faupel, T

> <Link to Ligand in BindingDB>
http://www.bindingdb.org/bind/chemsearch/marvin/MolStructure.jsp?monomerid=490431

> <Link to Ligand-Target Pair in BindingDB>
http://www.bindingdb.org/jsp/dbsearch/PrimarySearch_ki.jsp?energyterm=kJ/mole&tag=r21&monomerid=490431&enzyme=Dihydroorotate+dehydrogenase&column=ki&startPg=0&Increment=50&submit=Search

> <PubChem CID>
142335847

> <PubChem SID>
447117158

$$$$

  Mrv2115 07222212352D          

 31 35  0  0  0  0            999 V2000
    0.0000   -1.6500    0.0000 C   0  0  0  0  0  0  0  0  0  0  0  0
    0.7145   -1.2375    0.0000 C   0  0  0  0  0  0  0  0  0  0  0  0
    0.7145   -0.4125    0.0000 C   0  0  0  0  0  0  0  0  0  0  0  0
    0.0000    0.0000    0.0000 C   0  0  0  0  0  0  0  0  0  0  0  0
   -0.7145   -0.4125    0.0000 C   0  0  0  0  0  0  0  0  0  0  0  0
   -1.4289    0.0000    0.0000 C   0  0  0  0  0  0  0  0  0  0  0  0
   -1.4289    0.8250    0.0000 C   0  0  0  0  0  0  0  0  0  0  0  0
   -2.1434    1.2375    0.0000 C   0  0  0  0  0  0  0  0  0  0  0  0
   -2.8579    0.8250    0.0000 C   0  0  0  0  0  0  0  0  0  0  0  0
   -3.5724    1.2375    0.0000 C   0  0  0  0  0  0  0  0  0  0  0  0
   -3.5724    2.0625    0.0000 C   0  0  0  0  0  0  0  0  0  0  0  0
   -2.8579    2.4750    0.0000 C   0  0  0  0  0  0  0  0  0  0  0  0
   -2.1434    2.0625    0.0000 C   0  0  0  0  0  0  0  0  0  0  0  0
   -1.4289    2.4750    0.0000 F   0  0  0  0  0  0  0  0  0  0  0  0
   -0.7145    1.2375    0.0000 C   0  0  0  0  0  0  0  0  0  0  0  0
    0.0000    0.8250    0.0000 C   0  0  0  0  0  0  0  0  0  0  0  0
    1.4289    0.0000    0.0000 N   0  0  0  0  0  0  0  0  0  0  0  0
    2.1434   -0.4125    0.0000 C   0  0  0  0  0  0  0  0  0  0  0  0
    2.8579    0.0000    0.0000 C   0  0  0  0  0  0  0  0  0  0  0  0
    3.5724   -0.4125    0.0000 C   0  0  0  0  0  0  0  0  0  0  0  0
    3.5724   -1.2375    0.0000 C   0  0  0  0  0  0  0  0  0  0  0  0
    4.2868   -1.6500    0.0000 F   0  0  0  0  0  0  0  0  0  0  0  0
    2.8579   -1.6500    0.0000 C   0  0  0  0  0  0  0  0  0  0  0  0
    2.1434   -1.2375    0.0000 C   0  0  0  0  0  0  0  0  0  0  0  0
    1.4289   -1.6500    0.0000 C   0  0  0  0  0  0  0  0  0  0  0  0
    1.4289   -2.4750    0.0000 C   0  0  0  0  0  0  0  0  0  0  0  0
    2.0964   -2.9599    0.0000 N   0  0  0  0  0  0  0  0  0  0  0  0
    1.8414   -3.7445    0.0000 O   0  0  0  0  0  0  0  0  0  0  0  0
    1.0164   -3.7445    0.0000 C   0  0  0  0  0  0  0  0  0  0  0  0
    0.5315   -4.4120    0.0000 O   0  0  0  0  0  0  0  0  0  0  0  0
    0.7615   -2.9599    0.0000 N   0  0  0  0  0  0  0  0  0  0  0  0
  1  2  1  0  0  0  0
  2  3  4  0  0  0  0
  3  4  1  0  0  0  0
  4  5  4  0  0  0  0
  5  6  4  0  0  0  0
  6  7  4  0  0  0  0
  7  8  1  0  0  0  0
  8  9  4  0  0  0  0
  9 10  4  0  0  0  0
 10 11  4  0  0  0  0
 11 12  4  0  0  0  0
 12 13  4  0  0  0  0
  8 13  4  0  0  0  0
 13 14  1  0  0  0  0
  7 15  4  0  0  0  0
 15 16  4  0  0  0  0
  4 16  4  0  0  0  0
  3 17  4  0  0  0  0
 17 18  4  0  0  0  0
 18 19  4  0  0  0  0
 19 20  4  0  0  0  0
 20 21  4  0  0  0  0
 21 22  1  0  0  0  0
 21 23  4  0  0  0  0
 23 24  4  0  0  0  0
 18 24  4  0  0  0  0
 24 25  4  0  0  0  0
  2 25  4  0  0  0  0
 25 26  1  0  0  0  0
 26 27  4  0  0  0  0
 27 28  4  0  0  0  0
 28 29  4  0  0  0  0
 29 30  2  0  0  0  0
 29 31  4  0  0  0  0
 26 31  4  0  0  0  0
M  STY  1   1 DAT
M  SAL   1  1  31
M  SDT   1 MRV_IMPLICIT_H                                        
M  SDD   1     0.5304   -0.4125    DR    ALL  0       0  
M  SED   1 IMPL_H1
M  END
> <IC50(uM)>
1.56

> <Outcome>
0.0

> <BindingDB ID>
51370192

> <BindingDB MonomerID>
50554020

> <BindingDB Ligand Name>
CHEMBL4763950

> <Curation/DataSource>
ChEMBL

> <Article DOI>
?

> <PMID>
33007394

> <Patent Number>
?

> <Authors>
DeRatt, LG; Christine Pietsch, E; Tanner, A; Shaffer, P; Jacoby, E; Wang, W; Kazmi, F; Zhang, X; Attar, RM; Edwards, JP; Kuduk, SD

> <Link to Ligand in BindingDB>
http://www.bindingdb.org/bind/chemsearch/marvin/MolStructure.jsp?monomerid=50554020

> <Link to Ligand-Target Pair in BindingDB>
http://www.bindingdb.org/jsp/dbsearch/PrimarySearch_ki.jsp?energyterm=kJ/mole&tag=r21&monomerid=50554020&enzyme=Dihydroorotate+dehydrogenase&column=ki&startPg=0&Increment=50&submit=Search

> <PubChem CID>
162661576

> <PubChem SID>
461692788

$$$$

  Mrv2115 07222212352D          

 36 40  0  0  0  0            999 V2000
   -0.2934    3.3000    0.0000 C   0  0  0  0  0  0  0  0  0  0  0  0
    0.4210    3.7125    0.0000 C   0  0  0  0  0  0  0  0  0  0  0  0
    1.1355    3.3000    0.0000 O   0  0  0  0  0  0  0  0  0  0  0  0
    1.8500    3.7125    0.0000 C   0  0  0  0  0  0  0  0  0  0  0  0
    1.8500    4.5375    0.0000 C   0  0  0  0  0  0  0  0  0  0  0  0
    2.5645    4.9500    0.0000 C   0  0  0  0  0  0  0  0  0  0  0  0
    2.5645    5.7750    0.0000 N   0  0  0  0  0  0  0  0  0  0  0  0
    3.2319    6.2599    0.0000 N   0  0  0  0  0  0  0  0  0  0  0  0
    2.9770    7.0445    0.0000 C   0  0  0  0  0  0  0  0  0  0  0  0
    2.1520    7.0445    0.0000 N   0  0  0  0  0  0  0  0  0  0  0  0
    1.8970    6.2599    0.0000 C   0  0  0  0  0  0  0  0  0  0  0  0
    1.1124    6.0050    0.0000 O   0  0  0  0  0  0  0  0  0  0  0  0
    1.7395    7.7590    0.0000 C   0  0  0  0  0  0  0  0  0  0  0  0
    2.1520    8.4735    0.0000 C   0  0  0  0  0  0  0  0  0  0  0  0
    2.9770    8.4735    0.0000 C   0  0  0  0  0  0  0  0  0  0  0  0
    3.3895    7.7590    0.0000 C   0  0  0  0  0  0  0  0  0  0  0  0
    3.2789    4.5375    0.0000 C   0  0  0  0  0  0  0  0  0  0  0  0
    3.9934    4.9500    0.0000 F   0  0  0  0  0  0  0  0  0  0  0  0
    3.2789    3.7125    0.0000 C   0  0  0  0  0  0  0  0  0  0  0  0
    2.5645    3.3000    0.0000 C   0  0  0  0  0  0  0  0  0  0  0  0
    2.5645    2.4750    0.0000 C   0  0  0  0  0  0  0  0  0  0  0  0
    1.8500    2.0625    0.0000 O   0  0  0  0  0  0  0  0  0  0  0  0
    3.2789    2.0625    0.0000 N   0  0  0  0  0  0  0  0  0  0  0  0
    3.2789    1.2375    0.0000 C   0  0  0  0  0  0  0  0  0  0  0  0
    3.9934    0.8250    0.0000 N   0  0  0  0  0  0  0  0  0  0  0  0
    3.9934    0.0000    0.0000 C   0  0  0  0  0  0  0  0  0  0  0  0
    3.2789   -0.4125    0.0000 N   0  0  0  0  0  0  0  0  0  0  0  0
    2.5645    0.0000    0.0000 C   0  0  0  0  0  0  0  0  0  0  0  0
    1.7798   -0.2549    0.0000 N   0  0  0  0  0  0  0  0  0  0  0  0
    1.2949    0.4125    0.0000 C   0  0  0  0  0  0  0  0  0  0  0  0
    1.7798    1.0799    0.0000 C   0  0  0  0  0  0  0  0  0  0  0  0
    2.5645    0.8250    0.0000 C   0  0  0  0  0  0  0  0  0  0  0  0
    0.4210    4.5375    0.0000 C   0  0  0  0  0  0  0  0  0  0  0  0
    1.2460    4.5375    0.0000 F   0  0  0  0  0  0  0  0  0  0  0  0
   -0.4040    4.5375    0.0000 F   0  0  0  0  0  0  0  0  0  0  0  0
    0.4210    5.3625    0.0000 F   0  0  0  0  0  0  0  0  0  0  0  0
  1  2  1  0  0  0  0
  2  3  1  0  0  0  0
  3  4  1  0  0  0  0
  4  5  4  0  0  0  0
  5  6  4  0  0  0  0
  6  7  1  0  0  0  0
  7  8  4  0  0  0  0
  8  9  4  0  0  0  0
  9 10  4  0  0  0  0
 10 11  4  0  0  0  0
  7 11  4  0  0  0  0
 11 12  2  0  0  0  0
 10 13  1  0  0  0  0
 13 14  1  0  0  0  0
 14 15  1  0  0  0  0
 15 16  1  0  0  0  0
  9 16  1  0  0  0  0
  6 17  4  0  0  0  0
 17 18  1  0  0  0  0
 17 19  4  0  0  0  0
 19 20  4  0  0  0  0
  4 20  4  0  0  0  0
 20 21  1  0  0  0  0
 21 22  2  0  0  0  0
 21 23  1  0  0  0  0
 23 24  1  0  0  0  0
 24 25  4  0  0  0  0
 25 26  4  0  0  0  0
 26 27  4  0  0  0  0
 27 28  4  0  0  0  0
 28 29  4  0  0  0  0
 29 30  4  0  0  0  0
 30 31  4  0  0  0  0
 31 32  4  0  0  0  0
 24 32  4  0  0  0  0
 28 32  4  0  0  0  0
  2 33  1  0  0  0  0
 33 34  1  0  0  0  0
 33 35  1  0  0  0  0
 33 36  1  0  0  0  0
M  STY  1   1 DAT
M  SAL   1  1  29
M  SDT   1 MRV_IMPLICIT_H                                        
M  SDD   1     0.5304   -0.4125    DR    ALL  0       0  
M  SED   1 IMPL_H1
M  END
> <IC50(uM)>
0.85

> <Outcome>
1.0

> <BindingDB ID>
1020486

> <BindingDB MonomerID>
490434

> <BindingDB Ligand Name>
5-fluoro-4-(3-oxo-5,6,7,8-tetrahydro[1,2,4]triazolo[4,3-a]pyridin-2(3H)-yl)-N-(7H-pyrrolo[2,3-d]pyrimidin-4-yl)-2-{[(2S)-1,1,1-trifluoropropan-2-yl]oxy}benzamide::US10968216, Example 102

> <Curation/DataSource>
US Patent

> <Article DOI>
?

> <PMID>
?

> <Patent Number>
US10968216

> <Authors>
Gradl, SN; Nguyen, D; Eis, K; Gunther, J; Stellfeld, T; Janzer, A; Christian, S; Mueller, T; Sheikh, SE; Zhou, HJ; Zhao, C; Sykes, DB; Ferrara, SJ; Liu, K; Herbert, SA; Merz, C; Niehues, M; Nising, CF; Schafer, M; Zimmermann, K; Knablein, J; Thede, K; Faupel, T

> <Link to Ligand in BindingDB>
http://www.bindingdb.org/bind/chemsearch/marvin/MolStructure.jsp?monomerid=490434

> <Link to Ligand-Target Pair in BindingDB>
http://www.bindingdb.org/jsp/dbsearch/PrimarySearch_ki.jsp?energyterm=kJ/mole&tag=r21&monomerid=490434&enzyme=Dihydroorotate+dehydrogenase&column=ki&startPg=0&Increment=50&submit=Search

> <PubChem CID>
134474346

> <PubChem SID>
447117161

$$$$

  Mrv2115 07222212352D          

 32 35  0  0  0  0            999 V2000
    0.5269   -3.0225    0.0000 C   0  0  0  0  0  0  0  0  0  0  0  0
   -0.0862   -2.4705    0.0000 C   0  0  0  0  0  0  0  0  0  0  0  0
   -0.8932   -2.6420    0.0000 N   0  0  0  0  0  0  0  0  0  0  0  0
   -1.3057   -1.9275    0.0000 N   0  0  0  0  0  0  0  0  0  0  0  0
   -0.7537   -1.3144    0.0000 C   0  0  0  0  0  0  0  0  0  0  0  0
   -0.9252   -0.5075    0.0000 Cl  0  0  0  0  0  0  0  0  0  0  0  0
    0.0000   -1.6500    0.0000 C   0  0  0  0  0  0  0  0  0  0  0  0
    0.7145   -1.2375    0.0000 N   0  0  0  0  0  0  0  0  0  0  0  0
    0.7145   -0.4125    0.0000 C   0  0  0  0  0  0  0  0  0  0  0  0
    1.4289    0.0000    0.0000 C   0  0  0  0  0  0  0  0  0  0  0  0
    1.4289    0.8250    0.0000 C   0  0  0  0  0  0  0  0  0  0  0  0
    2.1434    1.2375    0.0000 C   0  0  0  0  0  0  0  0  0  0  0  0
    0.7145    1.2375    0.0000 C   0  0  0  0  0  0  0  0  0  0  0  0
    2.1434   -0.4125    0.0000 C   0  0  0  0  0  0  0  0  0  0  0  0
    2.8579    0.0000    0.0000 C   0  0  0  0  0  0  0  0  0  0  0  0
    3.5724   -0.4125    0.0000 C   0  0  0  0  0  0  0  0  0  0  0  0
    4.2868   -0.0000    0.0000 C   0  0  0  0  0  0  0  0  0  0  0  0
    4.3731    0.8205    0.0000 N   0  0  0  0  0  0  0  0  0  0  0  0
    5.1800    0.9920    0.0000 C   0  0  0  0  0  0  0  0  0  0  0  0
    5.5156    1.7457    0.0000 C   0  0  0  0  0  0  0  0  0  0  0  0
    5.8511    2.4994    0.0000 C   0  0  0  0  0  0  0  0  0  0  0  0
    6.2693    1.4101    0.0000 C   0  0  0  0  0  0  0  0  0  0  0  0
    4.7619    2.0812    0.0000 O   0  0  0  0  0  0  0  0  0  0  0  0
    5.5925    0.2775    0.0000 N   0  0  0  0  0  0  0  0  0  0  0  0
    6.4130    0.1913    0.0000 C   0  0  0  0  0  0  0  0  0  0  0  0
    5.0405   -0.3356    0.0000 N   0  0  0  0  0  0  0  0  0  0  0  0
    3.5724   -1.2375    0.0000 C   0  0  0  0  0  0  0  0  0  0  0  0
    4.2868   -1.6500    0.0000 F   0  0  0  0  0  0  0  0  0  0  0  0
    2.8579   -1.6500    0.0000 C   0  0  0  0  0  0  0  0  0  0  0  0
    2.1434   -1.2375    0.0000 C   0  0  0  0  0  0  0  0  0  0  0  0
    1.4289   -1.6500    0.0000 C   0  0  0  0  0  0  0  0  0  0  0  0
    1.4289   -2.4750    0.0000 O   0  0  0  0  0  0  0  0  0  0  0  0
  1  2  1  0  0  0  0
  2  3  4  0  0  0  0
  3  4  4  0  0  0  0
  4  5  4  0  0  0  0
  5  6  1  0  0  0  0
  5  7  4  0  0  0  0
  2  7  4  0  0  0  0
  7  8  1  0  0  0  0
  8  9  4  0  0  0  0
  9 10  4  0  0  0  0
 10 11  1  0  0  0  0
 11 12  1  0  0  0  0
 11 13  1  0  0  0  0
 10 14  4  0  0  0  0
 14 15  4  0  0  0  0
 15 16  4  0  0  0  0
 16 17  1  0  0  0  0
 17 18  4  0  0  0  0
 18 19  4  0  0  0  0
 19 20  1  0  0  0  0
 20 21  1  0  0  0  0
 20 22  1  0  0  0  0
 20 23  1  0  0  0  0
 19 24  4  0  0  0  0
 24 25  1  0  0  0  0
 24 26  4  0  0  0  0
 17 26  4  0  0  0  0
 16 27  4  0  0  0  0
 27 28  1  0  0  0  0
 27 29  4  0  0  0  0
 29 30  4  0  0  0  0
 14 30  4  0  0  0  0
 30 31  4  0  0  0  0
  8 31  4  0  0  0  0
 31 32  2  0  0  0  0
M  STY  1   1 DAT
M  SAL   1  1   4
M  SDT   1 MRV_IMPLICIT_H                                        
M  SDD   1     0.5304   -0.4125    DR    ALL  0       0  
M  SED   1 IMPL_H1
M  END
> <IC50(uM)>
7.099999999999999E-4

> <Outcome>
1.0

> <BindingDB ID>
1121379

> <BindingDB MonomerID>
530445

> <BindingDB Ligand Name>
2-(5-Chloro-3-methyl-1H-pyrazol-4-yl)-7-fluoro-6-(5-(2-hydroxypropan-2-yl)-1- methyl-1H-1,2,4-triazol-3-yl)-4-isopropylisoquinolin-1(2H)-one.::WO2022070068, Example 17

> <Curation/DataSource>
Curated from the literature by BindingDB

> <Article DOI>
?

> <PMID>
WO2022070068

> <Patent Number>
?

> <Authors>
Lindsey, D; Scott, K; Zhuming, Z

> <Link to Ligand in BindingDB>
http://www.bindingdb.org/bind/chemsearch/marvin/MolStructure.jsp?monomerid=530445

> <Link to Ligand-Target Pair in BindingDB>
http://www.bindingdb.org/jsp/dbsearch/PrimarySearch_ki.jsp?energyterm=kJ/mole&tag=r21&monomerid=530445&enzyme=Dihydroorotate+dehydrogenase&column=ki&startPg=0&Increment=50&submit=Search

> <PubChem CID>
?

> <PubChem SID>
?

$$$$

  Mrv2115 07222212352D          

 36 38  0  0  0  0            999 V2000
   -2.1434   -3.7125    0.0000 C   0  0  0  0  0  0  0  0  0  0  0  0
   -2.1434   -2.8875    0.0000 C   0  0  0  0  0  0  0  0  0  0  0  0
   -1.4289   -2.4750    0.0000 O   0  0  0  0  0  0  0  0  0  0  0  0
   -0.7145   -2.8875    0.0000 C   0  0  0  0  0  0  0  0  0  0  0  0
    0.0000   -2.4750    0.0000 C   0  0  0  0  0  0  0  0  0  0  0  0
    0.0000   -1.6500    0.0000 C   0  0  0  0  0  0  0  0  0  0  0  0
   -0.7145   -1.2375    0.0000 O   0  0  0  0  0  0  0  0  0  0  0  0
    0.7145   -1.2375    0.0000 N   0  0  0  0  0  0  0  0  0  0  0  0
    0.7145   -0.4125    0.0000 C   0  0  0  0  0  0  0  0  0  0  0  0
    0.0000    0.0000    0.0000 C   0  0  0  0  0  0  0  0  0  0  0  0
   -0.7145   -0.4125    0.0000 F   0  0  0  0  0  0  0  0  0  0  0  0
    0.0000    0.8250    0.0000 C   0  0  0  0  0  0  0  0  0  0  0  0
    0.7145    1.2375    0.0000 C   0  0  0  0  0  0  0  0  0  0  0  0
    1.4289    0.8250    0.0000 C   0  0  0  0  0  0  0  0  0  0  0  0
    1.4289   -0.0000    0.0000 C   0  0  0  0  0  0  0  0  0  0  0  0
    2.1434   -0.4125    0.0000 Cl  0  0  0  0  0  0  0  0  0  0  0  0
    0.7145   -2.8875    0.0000 C   0  0  0  0  0  0  0  0  0  0  0  0
    0.7145   -3.7125    0.0000 C   0  0  0  0  0  0  0  0  0  0  0  0
    0.0000   -4.1250    0.0000 C   0  0  0  0  0  0  0  0  0  0  0  0
    0.0000   -4.9500    0.0000 N   0  0  0  0  0  0  0  0  0  0  0  0
    0.6674   -5.4349    0.0000 N   0  0  0  0  0  0  0  0  0  0  0  0
    0.4125   -6.2195    0.0000 C   0  0  0  0  0  0  0  0  0  0  0  0
    0.8974   -6.8870    0.0000 C   0  0  0  0  0  0  0  0  0  0  0  0
    0.2300   -7.3719    0.0000 C   0  0  0  0  0  0  0  0  0  0  0  0
    1.5649   -6.4021    0.0000 C   0  0  0  0  0  0  0  0  0  0  0  0
    1.3823   -7.5544    0.0000 O   0  0  0  0  0  0  0  0  0  0  0  0
   -0.4125   -6.2195    0.0000 N   0  0  0  0  0  0  0  0  0  0  0  0
   -0.8974   -6.8870    0.0000 C   0  0  0  0  0  0  0  0  0  0  0  0
   -0.6674   -5.4349    0.0000 C   0  0  0  0  0  0  0  0  0  0  0  0
   -1.4521   -5.1800    0.0000 O   0  0  0  0  0  0  0  0  0  0  0  0
   -0.7145   -3.7125    0.0000 C   0  0  0  0  0  0  0  0  0  0  0  0
   -1.4289   -4.1250    0.0000 F   0  0  0  0  0  0  0  0  0  0  0  0
   -2.8579   -2.4750    0.0000 C   0  0  0  0  0  0  0  0  0  0  0  0
   -2.4454   -1.7605    0.0000 F   0  0  0  0  0  0  0  0  0  0  0  0
   -3.2704   -3.1895    0.0000 F   0  0  0  0  0  0  0  0  0  0  0  0
   -3.5724   -2.0625    0.0000 F   0  0  0  0  0  0  0  0  0  0  0  0
  1  2  1  0  0  0  0
  2  3  1  0  0  0  0
  3  4  1  0  0  0  0
  4  5  4  0  0  0  0
  5  6  1  0  0  0  0
  6  7  2  0  0  0  0
  6  8  1  0  0  0  0
  8  9  1  0  0  0  0
  9 10  4  0  0  0  0
 10 11  1  0  0  0  0
 10 12  4  0  0  0  0
 12 13  4  0  0  0  0
 13 14  4  0  0  0  0
 14 15  4  0  0  0  0
  9 15  4  0  0  0  0
 15 16  1  0  0  0  0
  5 17  4  0  0  0  0
 17 18  4  0  0  0  0
 18 19  4  0  0  0  0
 19 20  1  0  0  0  0
 20 21  4  0  0  0  0
 21 22  4  0  0  0  0
 22 23  1  0  0  0  0
 23 24  1  0  0  0  0
 23 25  1  0  0  0  0
 23 26  1  0  0  0  0
 22 27  4  0  0  0  0
 27 28  1  0  0  0  0
 27 29  4  0  0  0  0
 20 29  4  0  0  0  0
 29 30  2  0  0  0  0
 19 31  4  0  0  0  0
  4 31  4  0  0  0  0
 31 32  1  0  0  0  0
  2 33  1  0  0  0  0
 33 34  1  0  0  0  0
 33 35  1  0  0  0  0
 33 36  1  0  0  0  0
M  END
> <IC50(uM)>
0.045

> <Outcome>
1.0

> <BindingDB ID>
1098804; 972650

> <BindingDB MonomerID>
470528

> <BindingDB Ligand Name>
N-(2-chloro-6-fluorophenyl)-3-fluoro-4-[3-(2-hydroxypropan-2-yl)-4-methyl-5-oxo-4,5-dihydro-1H-1,2,4-triazol-1-yl]-2-{[(2S)-1,1,1-trifluoropropan-2-yl]oxy}benzamide::US10815215, Example 188::US11130745, Example 188; N-(2-chloro-6-fluorophenyl)-3-fluoro-4-[3-(2-hydroxypropan-2-yl)-4-methyl-5-oxo-4,5-dihydro-1H-1,2,4-triazol-1-yl]-2-{[(2S)-1,1,1-trifluoropropan-2-yl]oxy}benzamide::US10815215, Example 188

> <Curation/DataSource>
US Patent

> <Article DOI>
?

> <PMID>
?

> <Patent Number>
US11130745; US10815215

> <Authors>
Gradl, SN; Nguyen, D; Eis, K; Gunther, J; Stellfeld, T; Janzer, A; Christian, S; Muller, T; Sheikh, SE; Sykes, DB; Ferrara, SJ; Krober, M; Merz, C; Niehues, M; Schafer, M; Zimmermann, K; Nising, CF; Gradl, SN; Nguyen, D; Eis, K; Gunther, J; Stellfeld, T; Janzer, A; Christian, S; Muller, T; Sheikh, SE; Zhou, HJ; Zhao, C; Sykes, DB; Ferrara, SJ; Liu, K; Krober, M; Merz, C; Niehues, M; Schafer, M; Zimmermann, K; Nising, CF

> <Link to Ligand in BindingDB>
http://www.bindingdb.org/bind/chemsearch/marvin/MolStructure.jsp?monomerid=470528

> <Link to Ligand-Target Pair in BindingDB>
http://www.bindingdb.org/jsp/dbsearch/PrimarySearch_ki.jsp?energyterm=kJ/mole&tag=r21&monomerid=470528&enzyme=Dihydroorotate+dehydrogenase&column=ki&startPg=0&Increment=50&submit=Search

> <PubChem CID>
134470421

> <PubChem SID>
441609704

$$$$

  Mrv2115 07222212352D          

 36 39  0  0  0  0            999 V2000
   -3.1034    2.1599    0.0000 C   0  0  0  0  0  0  0  0  0  0  0  0
   -2.6909    1.4455    0.0000 C   0  0  0  0  0  0  0  0  0  0  0  0
   -3.1034    0.7310    0.0000 O   0  0  0  0  0  0  0  0  0  0  0  0
   -2.6909    0.0165    0.0000 C   0  0  0  0  0  0  0  0  0  0  0  0
   -1.8659    0.0165    0.0000 C   0  0  0  0  0  0  0  0  0  0  0  0
   -1.4534   -0.6979    0.0000 C   0  0  0  0  0  0  0  0  0  0  0  0
   -0.6284   -0.6979    0.0000 N   0  0  0  0  0  0  0  0  0  0  0  0
   -0.1435   -1.3654    0.0000 N   0  0  0  0  0  0  0  0  0  0  0  0
    0.6411   -1.1104    0.0000 C   0  0  0  0  0  0  0  0  0  0  0  0
    0.6411   -0.2854    0.0000 N   0  0  0  0  0  0  0  0  0  0  0  0
   -0.1435   -0.0305    0.0000 C   0  0  0  0  0  0  0  0  0  0  0  0
   -0.3984    0.7541    0.0000 O   0  0  0  0  0  0  0  0  0  0  0  0
    1.3556    0.1271    0.0000 C   0  0  0  0  0  0  0  0  0  0  0  0
    2.0701   -0.2854    0.0000 C   0  0  0  0  0  0  0  0  0  0  0  0
    2.0701   -1.1104    0.0000 C   0  0  0  0  0  0  0  0  0  0  0  0
    1.3556   -1.5229    0.0000 C   0  0  0  0  0  0  0  0  0  0  0  0
   -1.8659   -1.4124    0.0000 C   0  0  0  0  0  0  0  0  0  0  0  0
   -1.4534   -2.1269    0.0000 F   0  0  0  0  0  0  0  0  0  0  0  0
   -2.6909   -1.4124    0.0000 C   0  0  0  0  0  0  0  0  0  0  0  0
   -3.1034   -0.6979    0.0000 C   0  0  0  0  0  0  0  0  0  0  0  0
   -3.9284   -0.6979    0.0000 C   0  0  0  0  0  0  0  0  0  0  0  0
   -4.3409    0.0165    0.0000 O   0  0  0  0  0  0  0  0  0  0  0  0
   -4.3409   -1.4124    0.0000 N   0  0  0  0  0  0  0  0  0  0  0  0
   -5.1659   -1.4124    0.0000 C   0  0  0  0  0  0  0  0  0  0  0  0
   -5.5784   -2.1269    0.0000 C   0  0  0  0  0  0  0  0  0  0  0  0
   -6.4034   -2.1269    0.0000 C   0  0  0  0  0  0  0  0  0  0  0  0
   -6.8159   -2.8414    0.0000 F   0  0  0  0  0  0  0  0  0  0  0  0
   -6.8159   -1.4124    0.0000 C   0  0  0  0  0  0  0  0  0  0  0  0
   -6.4034   -0.6979    0.0000 C   0  0  0  0  0  0  0  0  0  0  0  0
   -6.8159    0.0165    0.0000 F   0  0  0  0  0  0  0  0  0  0  0  0
   -5.5784   -0.6979    0.0000 C   0  0  0  0  0  0  0  0  0  0  0  0
   -5.1659    0.0165    0.0000 Cl  0  0  0  0  0  0  0  0  0  0  0  0
   -1.8659    1.4455    0.0000 C   0  0  0  0  0  0  0  0  0  0  0  0
   -1.8659    0.6205    0.0000 F   0  0  0  0  0  0  0  0  0  0  0  0
   -1.8659    2.2705    0.0000 F   0  0  0  0  0  0  0  0  0  0  0  0
   -1.0409    1.4455    0.0000 F   0  0  0  0  0  0  0  0  0  0  0  0
  1  2  1  0  0  0  0
  2  3  1  0  0  0  0
  3  4  1  0  0  0  0
  4  5  4  0  0  0  0
  5  6  4  0  0  0  0
  6  7  1  0  0  0  0
  7  8  4  0  0  0  0
  8  9  4  0  0  0  0
  9 10  4  0  0  0  0
 10 11  4  0  0  0  0
  7 11  4  0  0  0  0
 11 12  2  0  0  0  0
 10 13  1  0  0  0  0
 13 14  1  0  0  0  0
 14 15  1  0  0  0  0
 15 16  1  0  0  0  0
  9 16  1  0  0  0  0
  6 17  4  0  0  0  0
 17 18  1  0  0  0  0
 17 19  4  0  0  0  0
 19 20  4  0  0  0  0
  4 20  4  0  0  0  0
 20 21  1  0  0  0  0
 21 22  2  0  0  0  0
 21 23  1  0  0  0  0
 23 24  1  0  0  0  0
 24 25  4  0  0  0  0
 25 26  4  0  0  0  0
 26 27  1  0  0  0  0
 26 28  4  0  0  0  0
 28 29  4  0  0  0  0
 29 30  1  0  0  0  0
 29 31  4  0  0  0  0
 24 31  4  0  0  0  0
 31 32  1  0  0  0  0
  2 33  1  0  0  0  0
 33 34  1  0  0  0  0
 33 35  1  0  0  0  0
 33 36  1  0  0  0  0
M  END
> <IC50(uM)>
0.15

> <Outcome>
1.0

> <BindingDB ID>
1020420

> <BindingDB MonomerID>
490371

> <BindingDB Ligand Name>
N-(2-chloro-3,5-difluorophenyl)-5-fluoro-4-(3-oxo-5,6,7,8-tetrahydro[1,2,4]triazolo[4,3-a]pyridin-2(3H)-yl)-2-{[(2S)-1,1,1-trifluoropropan-2-yl]oxy}benzamide::US10968216, Example 39

> <Curation/DataSource>
US Patent

> <Article DOI>
?

> <PMID>
?

> <Patent Number>
US10968216

> <Authors>
Gradl, SN; Nguyen, D; Eis, K; Gunther, J; Stellfeld, T; Janzer, A; Christian, S; Mueller, T; Sheikh, SE; Zhou, HJ; Zhao, C; Sykes, DB; Ferrara, SJ; Liu, K; Herbert, SA; Merz, C; Niehues, M; Nising, CF; Schafer, M; Zimmermann, K; Knablein, J; Thede, K; Faupel, T

> <Link to Ligand in BindingDB>
http://www.bindingdb.org/bind/chemsearch/marvin/MolStructure.jsp?monomerid=490371

> <Link to Ligand-Target Pair in BindingDB>
http://www.bindingdb.org/jsp/dbsearch/PrimarySearch_ki.jsp?energyterm=kJ/mole&tag=r21&monomerid=490371&enzyme=Dihydroorotate+dehydrogenase&column=ki&startPg=0&Increment=50&submit=Search

> <PubChem CID>
134474307

> <PubChem SID>
447117098

$$$$

  Mrv2115 07222212352D          

 34 36  0  0  0  0            999 V2000
    4.2868   -2.4750    0.0000 C   0  0  0  0  0  0  0  0  0  0  0  0
    3.5724   -2.8875    0.0000 C   0  0  0  0  0  0  0  0  0  0  0  0
    2.8579   -2.4750    0.0000 C   0  0  0  0  0  0  0  0  0  0  0  0
    2.1434   -2.8875    0.0000 C   0  0  0  0  0  0  0  0  0  0  0  0
    2.1434   -3.7125    0.0000 C   0  0  0  0  0  0  0  0  0  0  0  0
    1.4289   -4.1250    0.0000 C   0  0  0  0  0  0  0  0  0  0  0  0
    0.7145   -3.7125    0.0000 C   0  0  0  0  0  0  0  0  0  0  0  0
    0.7145   -2.8875    0.0000 C   0  0  0  0  0  0  0  0  0  0  0  0
    1.4289   -2.4750    0.0000 C   0  0  0  0  0  0  0  0  0  0  0  0
    1.4289   -1.6500    0.0000 N   0  0  0  0  0  0  0  0  0  0  0  0
    0.7145   -1.2375    0.0000 C   0  0  0  0  0  0  0  0  0  0  0  0
    0.0000   -1.6500    0.0000 O   0  0  0  0  0  0  0  0  0  0  0  0
    0.7145   -0.4125    0.0000 C   0  0  0  0  0  0  0  0  0  0  0  0
   -0.0000    0.0000    0.0000 C   0  0  0  0  0  0  0  0  0  0  0  0
    0.0000    0.8250    0.0000 C   0  0  0  0  0  0  0  0  0  0  0  0
   -0.7145    1.2375    0.0000 F   0  0  0  0  0  0  0  0  0  0  0  0
    0.7145    1.2375    0.0000 C   0  0  0  0  0  0  0  0  0  0  0  0
    0.7145    2.0625    0.0000 N   0  0  0  0  0  0  0  0  0  0  0  0
    0.0470    2.5474    0.0000 N   0  0  0  0  0  0  0  0  0  0  0  0
    0.3020    3.3320    0.0000 C   0  0  0  0  0  0  0  0  0  0  0  0
   -0.1830    3.9995    0.0000 C   0  0  0  0  0  0  0  0  0  0  0  0
    0.1526    4.7532    0.0000 C   0  0  0  0  0  0  0  0  0  0  0  0
    1.1270    3.3320    0.0000 N   0  0  0  0  0  0  0  0  0  0  0  0
    1.6119    3.9995    0.0000 C   0  0  0  0  0  0  0  0  0  0  0  0
    1.3819    2.5474    0.0000 C   0  0  0  0  0  0  0  0  0  0  0  0
    2.1665    2.2925    0.0000 O   0  0  0  0  0  0  0  0  0  0  0  0
    1.4289    0.8250    0.0000 C   0  0  0  0  0  0  0  0  0  0  0  0
    1.4289    0.0000    0.0000 C   0  0  0  0  0  0  0  0  0  0  0  0
    2.1434   -0.4125    0.0000 O   0  0  0  0  0  0  0  0  0  0  0  0
    2.8579    0.0000    0.0000 C   0  0  0  0  0  0  0  0  0  0  0  0
    2.8579    0.8250    0.0000 C   0  0  0  0  0  0  0  0  0  0  0  0
    3.5724   -0.4125    0.0000 C   0  0  0  0  0  0  0  0  0  0  0  0
    4.2868    0.0000    0.0000 C   0  0  0  0  0  0  0  0  0  0  0  0
    5.0013   -0.4125    0.0000 C   0  0  0  0  0  0  0  0  0  0  0  0
  1  2  1  0  0  0  0
  2  3  1  0  0  0  0
  3  4  1  0  0  0  0
  4  5  4  0  0  0  0
  5  6  4  0  0  0  0
  6  7  4  0  0  0  0
  7  8  4  0  0  0  0
  8  9  4  0  0  0  0
  4  9  4  0  0  0  0
  9 10  1  0  0  0  0
 10 11  1  0  0  0  0
 11 12  2  0  0  0  0
 11 13  1  0  0  0  0
 13 14  4  0  0  0  0
 14 15  4  0  0  0  0
 15 16  1  0  0  0  0
 15 17  4  0  0  0  0
 17 18  1  0  0  0  0
 18 19  4  0  0  0  0
 19 20  4  0  0  0  0
 20 21  1  0  0  0  0
 21 22  1  0  0  0  0
 20 23  4  0  0  0  0
 23 24  1  0  0  0  0
 23 25  4  0  0  0  0
 18 25  4  0  0  0  0
 25 26  2  0  0  0  0
 17 27  4  0  0  0  0
 27 28  4  0  0  0  0
 13 28  4  0  0  0  0
 28 29  1  0  0  0  0
 29 30  1  0  0  0  0
 30 31  1  0  0  0  0
 30 32  1  0  0  0  0
 32 33  1  0  0  0  0
 33 34  1  0  0  0  0
M  END
> <IC50(uM)>
0.03335

> <Outcome>
1.0

> <BindingDB ID>
1098652; 972498; 972499; 1098653

> <BindingDB MonomerID>
470379

> <BindingDB Ligand Name>
4-(3-ethyl-4-methyl-5-oxo-4,5-dihydro-1H-1,2,4-triazol-1-yl)-5-fluoro-2-[(2S)-pentan-2-yloxy]-N-(2-propylphenyl)benzamide::US10815215, Example 38::US11130745, Example 38; 4-(3-ethyl-4-methyl-5-oxo-4,5-dihydro-1H-1,2,4-triazol-1-yl)-5-fluoro-2-[(2S)-pentan-2-yloxy]-N-(2-propylphenyl)benzamide::US10815215, Example 38

> <Curation/DataSource>
US Patent

> <Article DOI>
?

> <PMID>
?

> <Patent Number>
US11130745; US10815215

> <Authors>
Gradl, SN; Nguyen, D; Eis, K; Gunther, J; Stellfeld, T; Janzer, A; Christian, S; Muller, T; Sheikh, SE; Sykes, DB; Ferrara, SJ; Krober, M; Merz, C; Niehues, M; Schafer, M; Zimmermann, K; Nising, CF; Gradl, SN; Nguyen, D; Eis, K; Gunther, J; Stellfeld, T; Janzer, A; Christian, S; Muller, T; Sheikh, SE; Zhou, HJ; Zhao, C; Sykes, DB; Ferrara, SJ; Liu, K; Krober, M; Merz, C; Niehues, M; Schafer, M; Zimmermann, K; Nising, CF

> <Link to Ligand in BindingDB>
http://www.bindingdb.org/bind/chemsearch/marvin/MolStructure.jsp?monomerid=470379

> <Link to Ligand-Target Pair in BindingDB>
http://www.bindingdb.org/jsp/dbsearch/PrimarySearch_ki.jsp?energyterm=kJ/mole&tag=r21&monomerid=470379&enzyme=Dihydroorotate+dehydrogenase&column=ki&startPg=0&Increment=50&submit=Search

> <PubChem CID>
134470055

> <PubChem SID>
441609556

$$$$

  Mrv2115 07222212352D          

 28 32  0  0  0  0            999 V2000
   -0.5837    0.0165    0.0000 O   0  0  0  0  0  0  0  0  0  0  0  0
   -0.1712   -0.6979    0.0000 C   0  0  0  0  0  0  0  0  0  0  0  0
   -0.5837   -1.4124    0.0000 N   0  0  0  0  0  0  0  0  0  0  0  0
   -1.4087   -1.4124    0.0000 C   0  0  0  0  0  0  0  0  0  0  0  0
   -1.8212   -2.1269    0.0000 C   0  0  0  0  0  0  0  0  0  0  0  0
   -2.6462   -2.1269    0.0000 C   0  0  0  0  0  0  0  0  0  0  0  0
   -3.0587   -1.4124    0.0000 C   0  0  0  0  0  0  0  0  0  0  0  0
   -2.6462   -0.6979    0.0000 C   0  0  0  0  0  0  0  0  0  0  0  0
   -1.8212   -0.6979    0.0000 C   0  0  0  0  0  0  0  0  0  0  0  0
   -1.5663    0.0867    0.0000 C   0  0  0  0  0  0  0  0  0  0  0  0
   -2.2337    0.5716    0.0000 N   0  0  0  0  0  0  0  0  0  0  0  0
   -2.9011    0.0867    0.0000 N   0  0  0  0  0  0  0  0  0  0  0  0
   -3.6858    0.3416    0.0000 C   0  0  0  0  0  0  0  0  0  0  0  0
   -4.2989   -0.2104    0.0000 C   0  0  0  0  0  0  0  0  0  0  0  0
   -5.0835    0.0445    0.0000 C   0  0  0  0  0  0  0  0  0  0  0  0
   -5.2550    0.8515    0.0000 C   0  0  0  0  0  0  0  0  0  0  0  0
   -4.6419    1.4035    0.0000 C   0  0  0  0  0  0  0  0  0  0  0  0
   -3.8573    1.1486    0.0000 C   0  0  0  0  0  0  0  0  0  0  0  0
   -3.2442    1.7006    0.0000 F   0  0  0  0  0  0  0  0  0  0  0  0
    0.6538   -0.6979    0.0000 C   0  0  0  0  0  0  0  0  0  0  0  0
    1.1387   -0.0305    0.0000 C   0  0  0  0  0  0  0  0  0  0  0  0
    1.9233   -0.2854    0.0000 C   0  0  0  0  0  0  0  0  0  0  0  0
    2.6378    0.1271    0.0000 C   0  0  0  0  0  0  0  0  0  0  0  0
    3.3523   -0.2854    0.0000 C   0  0  0  0  0  0  0  0  0  0  0  0
    3.3523   -1.1104    0.0000 C   0  0  0  0  0  0  0  0  0  0  0  0
    2.6378   -1.5229    0.0000 C   0  0  0  0  0  0  0  0  0  0  0  0
    1.9233   -1.1104    0.0000 C   0  0  0  0  0  0  0  0  0  0  0  0
    1.1387   -1.3654    0.0000 N   0  0  0  0  0  0  0  0  0  0  0  0
  1  2  2  0  0  0  0
  2  3  1  0  0  0  0
  3  4  1  0  0  0  0
  4  5  1  0  0  0  0
  5  6  1  0  0  0  0
  6  7  1  0  0  0  0
  7  8  1  0  0  0  0
  8  9  4  0  0  0  0
  4  9  1  0  0  0  0
  9 10  4  0  0  0  0
 10 11  4  0  0  0  0
 11 12  4  0  0  0  0
  8 12  4  0  0  0  0
 12 13  1  0  0  0  0
 13 14  4  0  0  0  0
 14 15  4  0  0  0  0
 15 16  4  0  0  0  0
 16 17  4  0  0  0  0
 17 18  4  0  0  0  0
 13 18  4  0  0  0  0
 18 19  1  0  0  0  0
  2 20  1  0  0  0  0
 20 21  4  0  0  0  0
 21 22  4  0  0  0  0
 22 23  4  0  0  0  0
 23 24  4  0  0  0  0
 24 25  4  0  0  0  0
 25 26  4  0  0  0  0
 26 27  4  0  0  0  0
 22 27  4  0  0  0  0
 27 28  4  0  0  0  0
 20 28  4  0  0  0  0
M  STY  1   1 DAT
M  SAL   1  1  28
M  SDT   1 MRV_IMPLICIT_H                                        
M  SDD   1     0.5304   -0.4125    DR    ALL  0       0  
M  SED   1 IMPL_H1
M  END
> <IC50(uM)>
2.67

> <Outcome>
0.0

> <BindingDB ID>
993103

> <BindingDB MonomerID>
477605

> <BindingDB Ligand Name>
N-[(4R)-1-(2-fluorophenyl)-4,5,6,7-tetrahydro-1H-indazol-4-yl]-1H-indole-2-carboxamide::US10889564, Example 35

> <Curation/DataSource>
US Patent

> <Article DOI>
?

> <PMID>
?

> <Patent Number>
US10889564

> <Authors>
Lain, S; Drummond, C; Leeuwen, IV; Haraldsson, M; Johansson, L; Sandberg, L; Yngve, U

> <Link to Ligand in BindingDB>
http://www.bindingdb.org/bind/chemsearch/marvin/MolStructure.jsp?monomerid=477605

> <Link to Ligand-Target Pair in BindingDB>
http://www.bindingdb.org/jsp/dbsearch/PrimarySearch_ki.jsp?energyterm=kJ/mole&tag=r21&monomerid=477605&enzyme=Dihydroorotate+dehydrogenase&column=ki&startPg=0&Increment=50&submit=Search

> <PubChem CID>
129104684

> <PubChem SID>
442137222

$$$$

  Mrv2115 07222212352D          

 29 31  0  0  0  0            999 V2000
    0.7145   -3.7125    0.0000 O   0  0  0  0  0  0  0  0  0  0  0  0
    1.4289   -4.1250    0.0000 C   0  0  0  0  0  0  0  0  0  0  0  0
    2.1434   -3.7125    0.0000 O   0  0  0  0  0  0  0  0  0  0  0  0
    1.4289   -4.9500    0.0000 C   0  0  0  0  0  0  0  0  0  0  0  0
    2.0964   -5.4349    0.0000 C   0  0  0  0  0  0  0  0  0  0  0  0
    2.8810   -5.1800    0.0000 C   0  0  0  0  0  0  0  0  0  0  0  0
    3.4941   -5.7320    0.0000 O   0  0  0  0  0  0  0  0  0  0  0  0
    3.0525   -4.3730    0.0000 N   0  0  0  0  0  0  0  0  0  0  0  0
    3.8372   -4.1181    0.0000 C   0  0  0  0  0  0  0  0  0  0  0  0
    4.0087   -3.3111    0.0000 C   0  0  0  0  0  0  0  0  0  0  0  0
    4.7933   -3.0562    0.0000 C   0  0  0  0  0  0  0  0  0  0  0  0
    5.4064   -3.6082    0.0000 C   0  0  0  0  0  0  0  0  0  0  0  0
    6.1910   -3.3533    0.0000 C   0  0  0  0  0  0  0  0  0  0  0  0
    6.3625   -2.5463    0.0000 C   0  0  0  0  0  0  0  0  0  0  0  0
    7.1472   -2.2913    0.0000 C   0  0  0  0  0  0  0  0  0  0  0  0
    7.7603   -2.8434    0.0000 C   0  0  0  0  0  0  0  0  0  0  0  0
    7.5887   -3.6503    0.0000 C   0  0  0  0  0  0  0  0  0  0  0  0
    8.2018   -4.2024    0.0000 O   0  0  0  0  0  0  0  0  0  0  0  0
    8.9864   -3.9474    0.0000 C   0  0  0  0  0  0  0  0  0  0  0  0
    9.7711   -3.6925    0.0000 F   0  0  0  0  0  0  0  0  0  0  0  0
    9.2414   -4.7321    0.0000 F   0  0  0  0  0  0  0  0  0  0  0  0
    8.7315   -3.1628    0.0000 F   0  0  0  0  0  0  0  0  0  0  0  0
    6.8041   -3.9053    0.0000 C   0  0  0  0  0  0  0  0  0  0  0  0
    5.2349   -4.4152    0.0000 C   0  0  0  0  0  0  0  0  0  0  0  0
    4.4502   -4.6701    0.0000 C   0  0  0  0  0  0  0  0  0  0  0  0
    4.2787   -5.4771    0.0000 Cl  0  0  0  0  0  0  0  0  0  0  0  0
    1.8414   -6.2195    0.0000 C   0  0  0  0  0  0  0  0  0  0  0  0
    1.0164   -6.2195    0.0000 C   0  0  0  0  0  0  0  0  0  0  0  0
    0.7615   -5.4349    0.0000 C   0  0  0  0  0  0  0  0  0  0  0  0
  1  2  2  0  0  0  0
  2  3  1  0  0  0  0
  2  4  1  0  0  0  0
  4  5  2  0  0  0  0
  5  6  1  0  0  0  0
  6  7  2  0  0  0  0
  6  8  1  0  0  0  0
  8  9  1  0  0  0  0
  9 10  4  0  0  0  0
 10 11  4  0  0  0  0
 11 12  4  0  0  0  0
 12 13  1  0  0  0  0
 13 14  4  0  0  0  0
 14 15  4  0  0  0  0
 15 16  4  0  0  0  0
 16 17  4  0  0  0  0
 17 18  1  0  0  0  0
 18 19  1  0  0  0  0
 19 20  1  0  0  0  0
 19 21  1  0  0  0  0
 19 22  1  0  0  0  0
 17 23  4  0  0  0  0
 13 23  4  0  0  0  0
 12 24  4  0  0  0  0
 24 25  4  0  0  0  0
  9 25  4  0  0  0  0
 25 26  1  0  0  0  0
  5 27  1  0  0  0  0
 27 28  1  0  0  0  0
 28 29  1  0  0  0  0
  4 29  1  0  0  0  0
M  END
> <IC50(uM)>
0.29

> <Outcome>
1.0

> <BindingDB ID>
50251709

> <BindingDB MonomerID>
50137294

> <BindingDB Ligand Name>
2-(3-Chloro-3'-trifluoromethoxy-biphenyl-4-ylcarbamoyl)-cyclopent-1-enecarboxylic acid::CHEMBL155548

> <Curation/DataSource>
ChEMBL

> <Article DOI>
10.1016/j.bmcl.2003.10.021

> <PMID>
14684297

> <Patent Number>
?

> <Authors>
Leban, J; Saeb, W; Garcia, G; Baumgartner, R; Kramer, B

> <Link to Ligand in BindingDB>
http://www.bindingdb.org/bind/chemsearch/marvin/MolStructure.jsp?monomerid=50137294

> <Link to Ligand-Target Pair in BindingDB>
http://www.bindingdb.org/jsp/dbsearch/PrimarySearch_ki.jsp?energyterm=kJ/mole&tag=r21&monomerid=50137294&enzyme=Dihydroorotate+dehydrogenase&column=ki&startPg=0&Increment=50&submit=Search

> <PubChem CID>
44369738

> <PubChem SID>
104027460

$$$$

  Mrv2115 07222212352D          

 25 28  0  0  0  0            999 V2000
    3.9934    2.4750    0.0000 O   0  0  0  0  0  0  0  0  0  0  0  0
    3.2789    2.0625    0.0000 C   0  0  0  0  0  0  0  0  0  0  0  0
    2.5645    2.4750    0.0000 O   0  0  0  0  0  0  0  0  0  0  0  0
    3.2789    1.2375    0.0000 C   0  0  0  0  0  0  0  0  0  0  0  0
    3.9934    0.8250    0.0000 C   0  0  0  0  0  0  0  0  0  0  0  0
    3.9934    0.0000    0.0000 C   0  0  0  0  0  0  0  0  0  0  0  0
    4.7079   -0.4125    0.0000 F   0  0  0  0  0  0  0  0  0  0  0  0
    3.2789   -0.4125    0.0000 C   0  0  0  0  0  0  0  0  0  0  0  0
    2.5645    0.0000    0.0000 C   0  0  0  0  0  0  0  0  0  0  0  0
    1.7798   -0.2549    0.0000 N   0  0  0  0  0  0  0  0  0  0  0  0
    1.2949    0.4125    0.0000 C   0  0  0  0  0  0  0  0  0  0  0  0
    0.4699    0.4125    0.0000 C   0  0  0  0  0  0  0  0  0  0  0  0
    0.0574   -0.3020    0.0000 C   0  0  0  0  0  0  0  0  0  0  0  0
   -0.7676   -0.3020    0.0000 C   0  0  0  0  0  0  0  0  0  0  0  0
   -1.1801    0.4125    0.0000 C   0  0  0  0  0  0  0  0  0  0  0  0
   -2.0051    0.4125    0.0000 C   0  0  0  0  0  0  0  0  0  0  0  0
   -2.4176   -0.3020    0.0000 C   0  0  0  0  0  0  0  0  0  0  0  0
   -3.2426   -0.3020    0.0000 C   0  0  0  0  0  0  0  0  0  0  0  0
   -3.6551    0.4125    0.0000 C   0  0  0  0  0  0  0  0  0  0  0  0
   -3.2426    1.1270    0.0000 N   0  0  0  0  0  0  0  0  0  0  0  0
   -2.4176    1.1270    0.0000 C   0  0  0  0  0  0  0  0  0  0  0  0
   -0.7676    1.1270    0.0000 C   0  0  0  0  0  0  0  0  0  0  0  0
    0.0574    1.1270    0.0000 C   0  0  0  0  0  0  0  0  0  0  0  0
    1.7798    1.0799    0.0000 N   0  0  0  0  0  0  0  0  0  0  0  0
    2.5645    0.8250    0.0000 C   0  0  0  0  0  0  0  0  0  0  0  0
  1  2  2  0  0  0  0
  2  3  1  0  0  0  0
  2  4  1  0  0  0  0
  4  5  4  0  0  0  0
  5  6  4  0  0  0  0
  6  7  1  0  0  0  0
  6  8  4  0  0  0  0
  8  9  4  0  0  0  0
  9 10  4  0  0  0  0
 10 11  4  0  0  0  0
 11 12  1  0  0  0  0
 12 13  4  0  0  0  0
 13 14  4  0  0  0  0
 14 15  4  0  0  0  0
 15 16  1  0  0  0  0
 16 17  4  0  0  0  0
 17 18  4  0  0  0  0
 18 19  4  0  0  0  0
 19 20  4  0  0  0  0
 20 21  4  0  0  0  0
 16 21  4  0  0  0  0
 15 22  4  0  0  0  0
 22 23  4  0  0  0  0
 12 23  4  0  0  0  0
 11 24  4  0  0  0  0
 24 25  4  0  0  0  0
  4 25  4  0  0  0  0
  9 25  4  0  0  0  0
M  STY  1   1 DAT
M  SAL   1  1  10
M  SDT   1 MRV_IMPLICIT_H                                        
M  SDD   1     0.5304   -0.4125    DR    ALL  0       0  
M  SED   1 IMPL_H1
M  END
> <IC50(uM)>
0.437

> <Outcome>
1.0

> <BindingDB ID>
297775

> <BindingDB MonomerID>
155431

> <BindingDB Ligand Name>
US9006454, I58

> <Curation/DataSource>
US Patent

> <Article DOI>
?

> <PMID>
?

> <Patent Number>
US9006454

> <Authors>
Thunuguntla, SS; Subramanya, H; Kunnam, SR; Sanivaru Vijay, SR; Bingi, C; Kusanur, R; Schwarz, M; Arlt, M

> <Link to Ligand in BindingDB>
http://www.bindingdb.org/bind/chemsearch/marvin/MolStructure.jsp?monomerid=155431

> <Link to Ligand-Target Pair in BindingDB>
http://www.bindingdb.org/jsp/dbsearch/PrimarySearch_ki.jsp?energyterm=kJ/mole&tag=r21&monomerid=155431&enzyme=Dihydroorotate+dehydrogenase&column=ki&startPg=0&Increment=50&submit=Search

> <PubChem CID>
46946983

> <PubChem SID>
253658368

$$$$

  Mrv2115 07222212352D          

 26 29  0  0  0  0            999 V2000
    6.9246    5.6479    0.0000 C   0  0  0  0  0  0  0  0  0  0  0  0
    6.9246    4.8229    0.0000 C   0  0  0  0  0  0  0  0  0  0  0  0
    7.6391    4.4104    0.0000 C   0  0  0  0  0  0  0  0  0  0  0  0
    7.6391    3.5854    0.0000 C   0  0  0  0  0  0  0  0  0  0  0  0
    6.9246    3.1729    0.0000 C   0  0  0  0  0  0  0  0  0  0  0  0
    6.2102    3.5854    0.0000 C   0  0  0  0  0  0  0  0  0  0  0  0
    5.4957    3.1729    0.0000 C   0  0  0  0  0  0  0  0  0  0  0  0
    5.4957    2.3479    0.0000 C   0  0  0  0  0  0  0  0  0  0  0  0
    4.7812    1.9354    0.0000 C   0  0  0  0  0  0  0  0  0  0  0  0
    4.0668    2.3479    0.0000 C   0  0  0  0  0  0  0  0  0  0  0  0
    3.3523    1.9354    0.0000 C   0  0  0  0  0  0  0  0  0  0  0  0
    3.3523    1.1104    0.0000 C   0  0  0  0  0  0  0  0  0  0  0  0
    2.6378    0.6979    0.0000 C   0  0  0  0  0  0  0  0  0  0  0  0
    2.6378   -0.1271    0.0000 C   0  0  0  0  0  0  0  0  0  0  0  0
    1.9233   -0.5396    0.0000 O   0  0  0  0  0  0  0  0  0  0  0  0
    3.3523   -0.5396    0.0000 O   0  0  0  0  0  0  0  0  0  0  0  0
    1.9233    1.1104    0.0000 C   0  0  0  0  0  0  0  0  0  0  0  0
    1.1387    0.8555    0.0000 N   0  0  0  0  0  0  0  0  0  0  0  0
    0.6538    1.5229    0.0000 C   0  0  0  0  0  0  0  0  0  0  0  0
   -0.1712    1.5229    0.0000 C   0  0  0  0  0  0  0  0  0  0  0  0
    1.1387    2.1904    0.0000 N   0  0  0  0  0  0  0  0  0  0  0  0
    1.9233    1.9354    0.0000 C   0  0  0  0  0  0  0  0  0  0  0  0
    2.6378    2.3479    0.0000 C   0  0  0  0  0  0  0  0  0  0  0  0
    4.0668    3.1729    0.0000 C   0  0  0  0  0  0  0  0  0  0  0  0
    4.7812    3.5854    0.0000 C   0  0  0  0  0  0  0  0  0  0  0  0
    6.2102    4.4104    0.0000 C   0  0  0  0  0  0  0  0  0  0  0  0
  1  2  1  0  0  0  0
  2  3  4  0  0  0  0
  3  4  4  0  0  0  0
  4  5  4  0  0  0  0
  5  6  4  0  0  0  0
  6  7  1  0  0  0  0
  7  8  4  0  0  0  0
  8  9  4  0  0  0  0
  9 10  4  0  0  0  0
 10 11  1  0  0  0  0
 11 12  4  0  0  0  0
 12 13  4  0  0  0  0
 13 14  1  0  0  0  0
 14 15  2  0  0  0  0
 14 16  1  0  0  0  0
 13 17  4  0  0  0  0
 17 18  4  0  0  0  0
 18 19  4  0  0  0  0
 19 20  1  0  0  0  0
 19 21  4  0  0  0  0
 21 22  4  0  0  0  0
 17 22  4  0  0  0  0
 22 23  4  0  0  0  0
 11 23  4  0  0  0  0
 10 24  4  0  0  0  0
 24 25  4  0  0  0  0
  7 25  4  0  0  0  0
  6 26  4  0  0  0  0
  2 26  4  0  0  0  0
M  STY  1   1 DAT
M  SAL   1  1  21
M  SDT   1 MRV_IMPLICIT_H                                        
M  SDD   1     0.5304   -0.4125    DR    ALL  0       0  
M  SED   1 IMPL_H1
M  END
> <IC50(uM)>
0.0028000000000000004

> <Outcome>
1.0

> <BindingDB ID>
51390141; 1045593

> <BindingDB MonomerID>
501651

> <BindingDB Ligand Name>
US11028054, Example 25

> <Curation/DataSource>
ChEMBL; US Patent

> <Article DOI>
?

> <PMID>
33214811; ?

> <Patent Number>
?; US11028054

> <Authors>
Abdel-Magid, AF; Thunuguntla, SS; Hosahalli, S; Panigrahi, SK; Schwarz, M; Arit, M

> <Link to Ligand in BindingDB>
http://www.bindingdb.org/bind/chemsearch/marvin/MolStructure.jsp?monomerid=501651

> <Link to Ligand-Target Pair in BindingDB>
http://www.bindingdb.org/jsp/dbsearch/PrimarySearch_ki.jsp?energyterm=kJ/mole&tag=r21&monomerid=501651&enzyme=Dihydroorotate+dehydrogenase&column=ki&startPg=0&Increment=50&submit=Search

> <PubChem CID>
146525397; ?

> <PubChem SID>
459086983; ?

$$$$

  Mrv2115 07222212352D          

 21 24  0  0  0  0            999 V2000
    6.3569    1.1104    0.0000 C   0  0  0  0  0  0  0  0  0  0  0  0
    5.6424    0.6979    0.0000 C   0  0  0  0  0  0  0  0  0  0  0  0
    5.6424   -0.1271    0.0000 C   0  0  0  0  0  0  0  0  0  0  0  0
    4.9279   -0.5396    0.0000 C   0  0  0  0  0  0  0  0  0  0  0  0
    4.9279   -1.3646    0.0000 N   0  0  0  0  0  0  0  0  0  0  0  0
    4.2135   -1.7771    0.0000 C   0  0  0  0  0  0  0  0  0  0  0  0
    4.2135   -2.6021    0.0000 C   0  0  0  0  0  0  0  0  0  0  0  0
    3.4990   -3.0146    0.0000 C   0  0  0  0  0  0  0  0  0  0  0  0
    2.7845   -2.6021    0.0000 C   0  0  0  0  0  0  0  0  0  0  0  0
    2.0701   -3.0146    0.0000 C   0  0  0  0  0  0  0  0  0  0  0  0
    1.3556   -2.6021    0.0000 C   0  0  0  0  0  0  0  0  0  0  0  0
    1.3556   -1.7771    0.0000 C   0  0  0  0  0  0  0  0  0  0  0  0
    2.0701   -1.3646    0.0000 C   0  0  0  0  0  0  0  0  0  0  0  0
    2.7845   -1.7771    0.0000 C   0  0  0  0  0  0  0  0  0  0  0  0
    3.4990   -1.3646    0.0000 C   0  0  0  0  0  0  0  0  0  0  0  0
    4.2135   -0.1271    0.0000 N   0  0  0  0  0  0  0  0  0  0  0  0
    3.4288   -0.3820    0.0000 C   0  0  0  0  0  0  0  0  0  0  0  0
    2.9439    0.2854    0.0000 C   0  0  0  0  0  0  0  0  0  0  0  0
    3.4288    0.9529    0.0000 N   0  0  0  0  0  0  0  0  0  0  0  0
    4.2135    0.6979    0.0000 C   0  0  0  0  0  0  0  0  0  0  0  0
    4.9279    1.1104    0.0000 N   0  0  0  0  0  0  0  0  0  0  0  0
  1  2  1  0  0  0  0
  2  3  4  0  0  0  0
  3  4  4  0  0  0  0
  4  5  1  0  0  0  0
  5  6  1  0  0  0  0
  6  7  4  0  0  0  0
  7  8  4  0  0  0  0
  8  9  4  0  0  0  0
  9 10  4  0  0  0  0
 10 11  4  0  0  0  0
 11 12  4  0  0  0  0
 12 13  4  0  0  0  0
 13 14  4  0  0  0  0
  9 14  4  0  0  0  0
 14 15  4  0  0  0  0
  6 15  4  0  0  0  0
  4 16  4  0  0  0  0
 16 17  4  0  0  0  0
 17 18  4  0  0  0  0
 18 19  4  0  0  0  0
 19 20  4  0  0  0  0
 16 20  4  0  0  0  0
 20 21  4  0  0  0  0
  2 21  4  0  0  0  0
M  END
> <IC50(uM)>
100.0

> <Outcome>
0.0

> <BindingDB ID>
50967539

> <BindingDB MonomerID>
50396726

> <BindingDB Ligand Name>
CHEMBL2172236

> <Curation/DataSource>
ChEMBL

> <Article DOI>
10.1021/jm300351w

> <PMID>
22877245

> <Patent Number>
?

> <Authors>
Marwaha, A; White, J; El Mazouni, F; Creason, SA; Kokkonda, S; Buckner, FS; Charman, SA; Phillips, MA; Rathod, PK

> <Link to Ligand in BindingDB>
http://www.bindingdb.org/bind/chemsearch/marvin/MolStructure.jsp?monomerid=50396726

> <Link to Ligand-Target Pair in BindingDB>
http://www.bindingdb.org/jsp/dbsearch/PrimarySearch_ki.jsp?energyterm=kJ/mole&tag=r21&monomerid=50396726&enzyme=Dihydroorotate+dehydrogenase&column=ki&startPg=0&Increment=50&submit=Search

> <PubChem CID>
44133954

> <PubChem SID>
163345750

$$$$

  Mrv2115 07222212352D          

 27 29  0  0  0  0            999 V2000
    0.7145   -3.7125    0.0000 C   0  0  0  0  0  0  0  0  0  0  0  0
    0.7145   -2.8875    0.0000 C   0  0  0  0  0  0  0  0  0  0  0  0
    0.0000   -2.4750    0.0000 O   0  0  0  0  0  0  0  0  0  0  0  0
    1.4289   -2.4750    0.0000 N   0  0  0  0  0  0  0  0  0  0  0  0
    1.4289   -1.6500    0.0000 C   0  0  0  0  0  0  0  0  0  0  0  0
    0.7145   -1.2375    0.0000 C   0  0  0  0  0  0  0  0  0  0  0  0
    0.7145   -0.4125    0.0000 C   0  0  0  0  0  0  0  0  0  0  0  0
    1.4289    0.0000    0.0000 C   0  0  0  0  0  0  0  0  0  0  0  0
    2.1434   -0.4125    0.0000 C   0  0  0  0  0  0  0  0  0  0  0  0
    2.8579    0.0000    0.0000 C   0  0  0  0  0  0  0  0  0  0  0  0
    3.5724   -0.4125    0.0000 C   0  0  0  0  0  0  0  0  0  0  0  0
    3.5724   -1.2375    0.0000 C   0  0  0  0  0  0  0  0  0  0  0  0
    4.2868   -1.6500    0.0000 C   0  0  0  0  0  0  0  0  0  0  0  0
    5.0013   -1.2375    0.0000 C   0  0  0  0  0  0  0  0  0  0  0  0
    5.7158   -1.6500    0.0000 C   0  0  0  0  0  0  0  0  0  0  0  0
    6.4302   -1.2375    0.0000 C   0  0  0  0  0  0  0  0  0  0  0  0
    6.4302   -0.4125    0.0000 C   0  0  0  0  0  0  0  0  0  0  0  0
    7.1447   -0.0000    0.0000 O   0  0  0  0  0  0  0  0  0  0  0  0
    5.7158   -0.0000    0.0000 O   0  0  0  0  0  0  0  0  0  0  0  0
    7.1447   -1.6500    0.0000 N   0  0  0  0  0  0  0  0  0  0  0  0
    7.1447   -2.4750    0.0000 C   0  0  0  0  0  0  0  0  0  0  0  0
    7.8592   -2.8875    0.0000 O   0  0  0  0  0  0  0  0  0  0  0  0
    6.4302   -2.8875    0.0000 N   0  0  0  0  0  0  0  0  0  0  0  0
    5.7158   -2.4750    0.0000 C   0  0  0  0  0  0  0  0  0  0  0  0
    5.0013   -2.8875    0.0000 O   0  0  0  0  0  0  0  0  0  0  0  0
    2.8579   -1.6500    0.0000 C   0  0  0  0  0  0  0  0  0  0  0  0
    2.1434   -1.2375    0.0000 C   0  0  0  0  0  0  0  0  0  0  0  0
  1  2  1  0  0  0  0
  2  3  2  0  0  0  0
  2  4  1  0  0  0  0
  4  5  1  0  0  0  0
  5  6  4  0  0  0  0
  6  7  4  0  0  0  0
  7  8  4  0  0  0  0
  8  9  4  0  0  0  0
  9 10  4  0  0  0  0
 10 11  4  0  0  0  0
 11 12  4  0  0  0  0
 12 13  1  0  0  0  0
 13 14  1  0  0  0  0
 14 15  1  0  0  0  0
 15 16  4  0  0  0  0
 16 17  1  0  0  0  0
 17 18  2  0  0  0  0
 17 19  1  0  0  0  0
 16 20  4  0  0  0  0
 20 21  4  0  0  0  0
 21 22  2  0  0  0  0
 21 23  4  0  0  0  0
 23 24  4  0  0  0  0
 15 24  4  0  0  0  0
 24 25  2  0  0  0  0
 12 26  4  0  0  0  0
 26 27  4  0  0  0  0
  5 27  4  0  0  0  0
  9 27  4  0  0  0  0
M  STY  2   1 DAT   2 DAT
M  SAL   1  1  20
M  SDT   1 MRV_IMPLICIT_H                                        
M  SDD   1     0.5304   -0.4125    DR    ALL  0       0  
M  SED   1 IMPL_H1
M  SAL   2  1  23
M  SDT   2 MRV_IMPLICIT_H                                        
M  SDD   2     0.6482   -0.4125    DR    ALL  0       0  
M  SED   2 IMPL_H1
M  END
> <IC50(uM)>
3.96

> <Outcome>
0.0

> <BindingDB ID>
50555375

> <BindingDB MonomerID>
50212055

> <BindingDB Ligand Name>
CHEMBL3971851

> <Curation/DataSource>
ChEMBL

> <Article DOI>
10.1016/j.bmc.2017.01.009

> <PMID>
28118956

> <Patent Number>
?

> <Authors>
Inaoka, DK; Iida, M; Hashimoto, S; Tabuchi, T; Kuranaga, T; Balogun, EO; Honma, T; Tanaka, A; Harada, S; Nara, T; Kita, K; Inoue, M

> <Link to Ligand in BindingDB>
http://www.bindingdb.org/bind/chemsearch/marvin/MolStructure.jsp?monomerid=50212055

> <Link to Ligand-Target Pair in BindingDB>
http://www.bindingdb.org/jsp/dbsearch/PrimarySearch_ki.jsp?energyterm=kJ/mole&tag=r21&monomerid=50212055&enzyme=Dihydroorotate+dehydrogenase&column=ki&startPg=0&Increment=50&submit=Search

> <PubChem CID>
134153435

> <PubChem SID>
375983085

$$$$

  Mrv2115 07222212352D          

 27 29  0  0  0  0            999 V2000
   -0.7145    1.2375    0.0000 C   0  0  0  0  0  0  0  0  0  0  0  0
    0.0000    0.8250    0.0000 C   0  0  0  0  0  0  0  0  0  0  0  0
    0.0000   -0.0000    0.0000 O   0  0  0  0  0  0  0  0  0  0  0  0
    0.7145   -0.4125    0.0000 C   0  0  0  0  0  0  0  0  0  0  0  0
    1.4289   -0.0000    0.0000 O   0  0  0  0  0  0  0  0  0  0  0  0
    0.7145   -1.2375    0.0000 C   0  0  0  0  0  0  0  0  0  0  0  0
    1.3819   -1.7224    0.0000 S   0  0  0  0  0  0  0  0  0  0  0  0
    1.1270   -2.5070    0.0000 C   0  0  0  0  0  0  0  0  0  0  0  0
    1.6119   -3.1745    0.0000 N   0  0  0  0  0  0  0  0  0  0  0  0
    1.2763   -3.9282    0.0000 C   0  0  0  0  0  0  0  0  0  0  0  0
    1.7613   -4.5956    0.0000 C   0  0  0  0  0  0  0  0  0  0  0  0
    1.4257   -5.3493    0.0000 C   0  0  0  0  0  0  0  0  0  0  0  0
    0.6052   -5.4355    0.0000 C   0  0  0  0  0  0  0  0  0  0  0  0
    0.2697   -6.1892    0.0000 C   0  0  0  0  0  0  0  0  0  0  0  0
   -0.0659   -6.9429    0.0000 C   0  0  0  0  0  0  0  0  0  0  0  0
   -0.4840   -5.8536    0.0000 C   0  0  0  0  0  0  0  0  0  0  0  0
    1.0233   -6.5247    0.0000 C   0  0  0  0  0  0  0  0  0  0  0  0
    0.1203   -4.7681    0.0000 C   0  0  0  0  0  0  0  0  0  0  0  0
    0.4559   -4.0144    0.0000 C   0  0  0  0  0  0  0  0  0  0  0  0
    0.3020   -2.5070    0.0000 N   0  0  0  0  0  0  0  0  0  0  0  0
    0.0470   -1.7224    0.0000 C   0  0  0  0  0  0  0  0  0  0  0  0
   -0.7376   -1.4675    0.0000 C   0  0  0  0  0  0  0  0  0  0  0  0
   -1.3507   -2.0195    0.0000 C   0  0  0  0  0  0  0  0  0  0  0  0
   -2.1353   -1.7646    0.0000 C   0  0  0  0  0  0  0  0  0  0  0  0
   -2.3068   -0.9576    0.0000 C   0  0  0  0  0  0  0  0  0  0  0  0
   -1.6937   -0.4056    0.0000 C   0  0  0  0  0  0  0  0  0  0  0  0
   -0.9091   -0.6605    0.0000 C   0  0  0  0  0  0  0  0  0  0  0  0
  1  2  1  0  0  0  0
  2  3  1  0  0  0  0
  3  4  1  0  0  0  0
  4  5  2  0  0  0  0
  4  6  1  0  0  0  0
  6  7  4  0  0  0  0
  7  8  4  0  0  0  0
  8  9  1  0  0  0  0
  9 10  1  0  0  0  0
 10 11  4  0  0  0  0
 11 12  4  0  0  0  0
 12 13  4  0  0  0  0
 13 14  1  0  0  0  0
 14 15  1  0  0  0  0
 14 16  1  0  0  0  0
 14 17  1  0  0  0  0
 13 18  4  0  0  0  0
 18 19  4  0  0  0  0
 10 19  4  0  0  0  0
  8 20  4  0  0  0  0
 20 21  4  0  0  0  0
  6 21  4  0  0  0  0
 21 22  1  0  0  0  0
 22 23  4  0  0  0  0
 23 24  4  0  0  0  0
 24 25  4  0  0  0  0
 25 26  4  0  0  0  0
 26 27  4  0  0  0  0
 22 27  4  0  0  0  0
M  END
> <IC50(uM)>
0.284

> <Outcome>
1.0

> <BindingDB ID>
50312264

> <BindingDB MonomerID>
50071602

> <BindingDB Ligand Name>
CHEMBL3410601

> <Curation/DataSource>
ChEMBL

> <Article DOI>
10.1021/jm501127s

> <PMID>
25580811

> <Patent Number>
?

> <Authors>
Zhu, J; Han, L; Diao, Y; Ren, X; Xu, M; Xu, L; Li, S; Li, Q; Dong, D; Huang, J; Liu, X; Zhao, Z; Wang, R; Zhu, L; Xu, Y; Qian, X; Li, H

> <Link to Ligand in BindingDB>
http://www.bindingdb.org/bind/chemsearch/marvin/MolStructure.jsp?monomerid=50071602

> <Link to Ligand-Target Pair in BindingDB>
http://www.bindingdb.org/jsp/dbsearch/PrimarySearch_ki.jsp?energyterm=kJ/mole&tag=r21&monomerid=50071602&enzyme=Dihydroorotate+dehydrogenase&column=ki&startPg=0&Increment=50&submit=Search

> <PubChem CID>
118732512

> <PubChem SID>
313072549

$$$$

  Mrv2115 07222212352D          

 22 24  0  0  0  0            999 V2000
    4.0668    2.3479    0.0000 C   0  0  0  0  0  0  0  0  0  0  0  0
    3.3523    1.9354    0.0000 C   0  0  0  0  0  0  0  0  0  0  0  0
    3.3523    1.1104    0.0000 C   0  0  0  0  0  0  0  0  0  0  0  0
    2.6378    0.6979    0.0000 C   0  0  0  0  0  0  0  0  0  0  0  0
    2.6378   -0.1271    0.0000 O   0  0  0  0  0  0  0  0  0  0  0  0
    1.9233    1.1104    0.0000 N   0  0  0  0  0  0  0  0  0  0  0  0
    1.1387    0.8555    0.0000 N   0  0  0  0  0  0  0  0  0  0  0  0
    0.6538    1.5229    0.0000 C   0  0  0  0  0  0  0  0  0  0  0  0
   -0.1712    1.5229    0.0000 S   0  0  0  0  0  0  0  0  0  0  0  0
   -0.5837    0.8085    0.0000 C   0  0  0  0  0  0  0  0  0  0  0  0
   -1.4087    0.8085    0.0000 C   0  0  0  0  0  0  0  0  0  0  0  0
   -1.8212    0.0940    0.0000 C   0  0  0  0  0  0  0  0  0  0  0  0
   -2.6462    0.0940    0.0000 C   0  0  0  0  0  0  0  0  0  0  0  0
   -3.0587    0.8085    0.0000 C   0  0  0  0  0  0  0  0  0  0  0  0
   -2.6462    1.5229    0.0000 C   0  0  0  0  0  0  0  0  0  0  0  0
   -1.8212    1.5229    0.0000 C   0  0  0  0  0  0  0  0  0  0  0  0
   -1.4087    2.2374    0.0000 N   0  3  0  0  0  0  0  0  0  0  0  0
   -0.5837    2.2374    0.0000 O   0  0  0  0  0  0  0  0  0  0  0  0
   -1.8212    2.9519    0.0000 O   0  5  0  0  0  0  0  0  0  0  0  0
    1.1387    2.1904    0.0000 N   0  0  0  0  0  0  0  0  0  0  0  0
    1.9233    1.9354    0.0000 C   0  0  0  0  0  0  0  0  0  0  0  0
    2.6378    2.3479    0.0000 N   0  0  0  0  0  0  0  0  0  0  0  0
  1  2  1  0  0  0  0
  2  3  4  0  0  0  0
  3  4  4  0  0  0  0
  4  5  2  0  0  0  0
  4  6  4  0  0  0  0
  6  7  4  0  0  0  0
  7  8  4  0  0  0  0
  8  9  1  0  0  0  0
  9 10  1  0  0  0  0
 10 11  1  0  0  0  0
 11 12  4  0  0  0  0
 12 13  4  0  0  0  0
 13 14  4  0  0  0  0
 14 15  4  0  0  0  0
 15 16  4  0  0  0  0
 11 16  4  0  0  0  0
 16 17  1  0  0  0  0
 17 18  2  0  0  0  0
 17 19  1  0  0  0  0
  8 20  4  0  0  0  0
 20 21  4  0  0  0  0
  6 21  4  0  0  0  0
 21 22  4  0  0  0  0
  2 22  4  0  0  0  0
M  CHG  2  17   1  19  -1
M  STY  1   1 DAT
M  SAL   1  1   7
M  SDT   1 MRV_IMPLICIT_H                                        
M  SDD   1     0.5304   -0.4125    DR    ALL  0       0  
M  SED   1 IMPL_H1
M  END
> <IC50(uM)>
9.5

> <Outcome>
0.0

> <BindingDB ID>
50970250

> <BindingDB MonomerID>
50397823

> <BindingDB Ligand Name>
CHEMBL2177855

> <Curation/DataSource>
ChEMBL

> <Article DOI>
10.1021/jm300157n

> <PMID>
22621375

> <Patent Number>
?

> <Authors>
Bedingfield, PT; Cowen, D; Acklam, P; Cunningham, F; Parsons, MR; McConkey, GA; Fishwick, CW; Johnson, AP

> <Link to Ligand in BindingDB>
http://www.bindingdb.org/bind/chemsearch/marvin/MolStructure.jsp?monomerid=50397823

> <Link to Ligand-Target Pair in BindingDB>
http://www.bindingdb.org/jsp/dbsearch/PrimarySearch_ki.jsp?energyterm=kJ/mole&tag=r21&monomerid=50397823&enzyme=Dihydroorotate+dehydrogenase&column=ki&startPg=0&Increment=50&submit=Search

> <PubChem CID>
60166482

> <PubChem SID>
163346847

$$$$

  Mrv2115 07222212352D          

 26 28  0  0  0  0            999 V2000
   -1.4087    0.0165    0.0000 C   0  0  0  0  0  0  0  0  0  0  0  0
   -0.5837    0.0165    0.0000 C   0  0  0  0  0  0  0  0  0  0  0  0
   -0.1712   -0.6979    0.0000 O   0  0  0  0  0  0  0  0  0  0  0  0
    0.6538   -0.6979    0.0000 C   0  0  0  0  0  0  0  0  0  0  0  0
    1.1387   -0.0305    0.0000 N   0  0  0  0  0  0  0  0  0  0  0  0
    1.9233   -0.2854    0.0000 C   0  0  0  0  0  0  0  0  0  0  0  0
    2.6378    0.1271    0.0000 N   0  0  0  0  0  0  0  0  0  0  0  0
    3.3523   -0.2854    0.0000 C   0  0  0  0  0  0  0  0  0  0  0  0
    4.0668    0.1271    0.0000 C   0  0  0  0  0  0  0  0  0  0  0  0
    3.3523   -1.1104    0.0000 C   0  0  0  0  0  0  0  0  0  0  0  0
    2.6378   -1.5229    0.0000 C   0  0  0  0  0  0  0  0  0  0  0  0
    2.6378   -2.3479    0.0000 N   0  0  0  0  0  0  0  0  0  0  0  0
    1.9233   -2.7604    0.0000 C   0  0  0  0  0  0  0  0  0  0  0  0
    1.9233   -3.5854    0.0000 C   0  0  0  0  0  0  0  0  0  0  0  0
    1.2089   -3.9979    0.0000 C   0  0  0  0  0  0  0  0  0  0  0  0
    0.4944   -3.5854    0.0000 C   0  0  0  0  0  0  0  0  0  0  0  0
   -0.2201   -3.9979    0.0000 S   0  0  0  0  0  0  0  0  0  0  0  0
   -0.9345   -4.4104    0.0000 F   0  0  0  0  0  0  0  0  0  0  0  0
   -0.2201   -4.8229    0.0000 F   0  0  0  0  0  0  0  0  0  0  0  0
    0.4944   -4.4104    0.0000 F   0  0  0  0  0  0  0  0  0  0  0  0
   -0.2201   -3.1729    0.0000 F   0  0  0  0  0  0  0  0  0  0  0  0
   -0.9345   -3.5854    0.0000 F   0  0  0  0  0  0  0  0  0  0  0  0
    0.4944   -2.7604    0.0000 C   0  0  0  0  0  0  0  0  0  0  0  0
    1.2089   -2.3479    0.0000 C   0  0  0  0  0  0  0  0  0  0  0  0
    1.9233   -1.1104    0.0000 N   0  0  0  0  0  0  0  0  0  0  0  0
    1.1387   -1.3654    0.0000 N   0  0  0  0  0  0  0  0  0  0  0  0
  1  2  1  0  0  0  0
  2  3  1  0  0  0  0
  3  4  1  0  0  0  0
  4  5  4  0  0  0  0
  5  6  4  0  0  0  0
  6  7  4  0  0  0  0
  7  8  4  0  0  0  0
  8  9  1  0  0  0  0
  8 10  4  0  0  0  0
 10 11  4  0  0  0  0
 11 12  1  0  0  0  0
 12 13  1  0  0  0  0
 13 14  4  0  0  0  0
 14 15  4  0  0  0  0
 15 16  4  0  0  0  0
 16 17  1  0  0  0  0
 17 18  1  0  0  0  0
 17 19  1  0  0  0  0
 17 20  1  0  0  0  0
 17 21  1  0  0  0  0
 17 22  1  0  0  0  0
 16 23  4  0  0  0  0
 23 24  4  0  0  0  0
 13 24  4  0  0  0  0
 11 25  4  0  0  0  0
  6 25  4  0  0  0  0
 25 26  4  0  0  0  0
  4 26  4  0  0  0  0
M  END
> <IC50(uM)>
100.0

> <Outcome>
0.0

> <BindingDB ID>
50720150

> <BindingDB MonomerID>
50365220

> <BindingDB Ligand Name>
CHEMBL1956473

> <Curation/DataSource>
ChEMBL

> <Article DOI>
10.1021/jm200592f

> <PMID>
21696174

> <Patent Number>
?

> <Authors>
Coteron, JM; Marco, M; Esquivias, J; Deng, X; White, KL; White, J; Koltun, M; El Mazouni, F; Kokkonda, S; Katneni, K; Bhamidipati, R; Shackleford, DM; Angulo-Barturen, I; Ferrer, SB; Jimenez-Diaz, MB; Gamo, FJ; Goldsmith, EJ; Charman, WN; Bathurst, I; Floyd, D; Matthews, D; Burrows, JN; Rathod, PK; Charman, SA; Phillips, MA

> <Link to Ligand in BindingDB>
http://www.bindingdb.org/bind/chemsearch/marvin/MolStructure.jsp?monomerid=50365220

> <Link to Ligand-Target Pair in BindingDB>
http://www.bindingdb.org/jsp/dbsearch/PrimarySearch_ki.jsp?energyterm=kJ/mole&tag=r21&monomerid=50365220&enzyme=Dihydroorotate+dehydrogenase&column=ki&startPg=0&Increment=50&submit=Search

> <PubChem CID>
51347396

> <PubChem SID>
136969282

$$$$

  Mrv2115 07222212352D          

 36 39  0  0  0  0            999 V2000
   -3.1034    2.1599    0.0000 C   0  0  0  0  0  0  0  0  0  0  0  0
   -2.6909    1.4455    0.0000 C   0  0  0  0  0  0  0  0  0  0  0  0
   -3.1034    0.7310    0.0000 O   0  0  0  0  0  0  0  0  0  0  0  0
   -2.6909    0.0165    0.0000 C   0  0  0  0  0  0  0  0  0  0  0  0
   -1.8659    0.0165    0.0000 C   0  0  0  0  0  0  0  0  0  0  0  0
   -1.4534   -0.6979    0.0000 C   0  0  0  0  0  0  0  0  0  0  0  0
   -0.6284   -0.6979    0.0000 N   0  0  0  0  0  0  0  0  0  0  0  0
   -0.1435   -1.3654    0.0000 N   0  0  0  0  0  0  0  0  0  0  0  0
    0.6411   -1.1104    0.0000 C   0  0  0  0  0  0  0  0  0  0  0  0
    0.6411   -0.2854    0.0000 N   0  0  0  0  0  0  0  0  0  0  0  0
   -0.1435   -0.0305    0.0000 C   0  0  0  0  0  0  0  0  0  0  0  0
   -0.3984    0.7541    0.0000 O   0  0  0  0  0  0  0  0  0  0  0  0
    1.3556    0.1271    0.0000 C   0  0  0  0  0  0  0  0  0  0  0  0
    2.0701   -0.2854    0.0000 C   0  0  0  0  0  0  0  0  0  0  0  0
    2.0701   -1.1104    0.0000 O   0  0  0  0  0  0  0  0  0  0  0  0
    1.3556   -1.5229    0.0000 C   0  0  0  0  0  0  0  0  0  0  0  0
   -1.8659   -1.4124    0.0000 C   0  0  0  0  0  0  0  0  0  0  0  0
   -1.4534   -2.1269    0.0000 F   0  0  0  0  0  0  0  0  0  0  0  0
   -2.6909   -1.4124    0.0000 C   0  0  0  0  0  0  0  0  0  0  0  0
   -3.1034   -0.6979    0.0000 C   0  0  0  0  0  0  0  0  0  0  0  0
   -3.9284   -0.6979    0.0000 C   0  0  0  0  0  0  0  0  0  0  0  0
   -4.3409    0.0165    0.0000 O   0  0  0  0  0  0  0  0  0  0  0  0
   -4.3409   -1.4124    0.0000 N   0  0  0  0  0  0  0  0  0  0  0  0
   -5.1659   -1.4124    0.0000 C   0  0  0  0  0  0  0  0  0  0  0  0
   -5.5784   -2.1269    0.0000 C   0  0  0  0  0  0  0  0  0  0  0  0
   -5.1659   -2.8414    0.0000 Cl  0  0  0  0  0  0  0  0  0  0  0  0
   -6.4034   -2.1269    0.0000 C   0  0  0  0  0  0  0  0  0  0  0  0
   -6.8159   -1.4124    0.0000 C   0  0  0  0  0  0  0  0  0  0  0  0
   -6.4034   -0.6979    0.0000 C   0  0  0  0  0  0  0  0  0  0  0  0
   -6.8159    0.0165    0.0000 F   0  0  0  0  0  0  0  0  0  0  0  0
   -5.5784   -0.6979    0.0000 C   0  0  0  0  0  0  0  0  0  0  0  0
   -5.1659    0.0165    0.0000 F   0  0  0  0  0  0  0  0  0  0  0  0
   -1.8659    1.4455    0.0000 C   0  0  0  0  0  0  0  0  0  0  0  0
   -1.8659    0.6205    0.0000 F   0  0  0  0  0  0  0  0  0  0  0  0
   -1.8659    2.2705    0.0000 F   0  0  0  0  0  0  0  0  0  0  0  0
   -1.0409    1.4455    0.0000 F   0  0  0  0  0  0  0  0  0  0  0  0
  1  2  1  0  0  0  0
  2  3  1  0  0  0  0
  3  4  1  0  0  0  0
  4  5  4  0  0  0  0
  5  6  4  0  0  0  0
  6  7  1  0  0  0  0
  7  8  4  0  0  0  0
  8  9  4  0  0  0  0
  9 10  4  0  0  0  0
 10 11  4  0  0  0  0
  7 11  4  0  0  0  0
 11 12  2  0  0  0  0
 10 13  1  0  0  0  0
 13 14  1  0  0  0  0
 14 15  1  0  0  0  0
 15 16  1  0  0  0  0
  9 16  1  0  0  0  0
  6 17  4  0  0  0  0
 17 18  1  0  0  0  0
 17 19  4  0  0  0  0
 19 20  4  0  0  0  0
  4 20  4  0  0  0  0
 20 21  1  0  0  0  0
 21 22  2  0  0  0  0
 21 23  1  0  0  0  0
 23 24  1  0  0  0  0
 24 25  4  0  0  0  0
 25 26  1  0  0  0  0
 25 27  4  0  0  0  0
 27 28  4  0  0  0  0
 28 29  4  0  0  0  0
 29 30  1  0  0  0  0
 29 31  4  0  0  0  0
 24 31  4  0  0  0  0
 31 32  1  0  0  0  0
  2 33  1  0  0  0  0
 33 34  1  0  0  0  0
 33 35  1  0  0  0  0
 33 36  1  0  0  0  0
M  END
> <IC50(uM)>
0.046

> <Outcome>
1.0

> <BindingDB ID>
1020603

> <BindingDB MonomerID>
490542

> <BindingDB Ligand Name>
N-(6-chloro-2,3-difluorophenyl)-5-fluoro-4-(3-oxo-5,6-dihydro-3H-[1,2,4]triazolo[3,4-c]-[1,4]oxazin-2(8H)-yl)-2-{[(2S)-1,1,1-trifluoropropan-2-yl]oxy}benzamide::US10968216, Example 210

> <Curation/DataSource>
US Patent

> <Article DOI>
?

> <PMID>
?

> <Patent Number>
US10968216

> <Authors>
Gradl, SN; Nguyen, D; Eis, K; Gunther, J; Stellfeld, T; Janzer, A; Christian, S; Mueller, T; Sheikh, SE; Zhou, HJ; Zhao, C; Sykes, DB; Ferrara, SJ; Liu, K; Herbert, SA; Merz, C; Niehues, M; Nising, CF; Schafer, M; Zimmermann, K; Knablein, J; Thede, K; Faupel, T

> <Link to Ligand in BindingDB>
http://www.bindingdb.org/bind/chemsearch/marvin/MolStructure.jsp?monomerid=490542

> <Link to Ligand-Target Pair in BindingDB>
http://www.bindingdb.org/jsp/dbsearch/PrimarySearch_ki.jsp?energyterm=kJ/mole&tag=r21&monomerid=490542&enzyme=Dihydroorotate+dehydrogenase&column=ki&startPg=0&Increment=50&submit=Search

> <PubChem CID>
134474512

> <PubChem SID>
447117268

$$$$

  Mrv2115 07222212352D          

 26 29  0  0  0  0            999 V2000
   -0.1712   -0.6979    0.0000 C   0  0  0  0  0  0  0  0  0  0  0  0
    0.6538   -0.6979    0.0000 C   0  0  0  0  0  0  0  0  0  0  0  0
    1.1387   -0.0305    0.0000 N   0  0  0  0  0  0  0  0  0  0  0  0
    1.9233   -0.2854    0.0000 C   0  0  0  0  0  0  0  0  0  0  0  0
    2.6378    0.1271    0.0000 C   0  0  0  0  0  0  0  0  0  0  0  0
    2.6378    0.9521    0.0000 C   0  0  0  0  0  0  0  0  0  0  0  0
    3.3523    1.3646    0.0000 O   0  0  0  0  0  0  0  0  0  0  0  0
    1.9233    1.3646    0.0000 O   0  0  0  0  0  0  0  0  0  0  0  0
    3.3523   -0.2854    0.0000 C   0  0  0  0  0  0  0  0  0  0  0  0
    3.3523   -1.1104    0.0000 C   0  0  0  0  0  0  0  0  0  0  0  0
    4.0668   -1.5229    0.0000 C   0  0  0  0  0  0  0  0  0  0  0  0
    4.7812   -1.1104    0.0000 C   0  0  0  0  0  0  0  0  0  0  0  0
    5.4957   -1.5229    0.0000 C   0  0  0  0  0  0  0  0  0  0  0  0
    5.4957   -2.3479    0.0000 C   0  0  0  0  0  0  0  0  0  0  0  0
    6.2102   -2.7604    0.0000 N   0  0  0  0  0  0  0  0  0  0  0  0
    6.9638   -2.4249    0.0000 C   0  0  0  0  0  0  0  0  0  0  0  0
    7.1354   -1.6179    0.0000 C   0  0  0  0  0  0  0  0  0  0  0  0
    7.5159   -3.0380    0.0000 C   0  0  0  0  0  0  0  0  0  0  0  0
    7.1034   -3.7525    0.0000 C   0  0  0  0  0  0  0  0  0  0  0  0
    6.2964   -3.5809    0.0000 C   0  0  0  0  0  0  0  0  0  0  0  0
    5.6833   -4.1330    0.0000 C   0  0  0  0  0  0  0  0  0  0  0  0
    4.7812   -2.7604    0.0000 C   0  0  0  0  0  0  0  0  0  0  0  0
    4.0668   -2.3479    0.0000 C   0  0  0  0  0  0  0  0  0  0  0  0
    2.6378   -1.5229    0.0000 C   0  0  0  0  0  0  0  0  0  0  0  0
    1.9233   -1.1104    0.0000 C   0  0  0  0  0  0  0  0  0  0  0  0
    1.1387   -1.3654    0.0000 N   0  0  0  0  0  0  0  0  0  0  0  0
  1  2  1  0  0  0  0
  2  3  4  0  0  0  0
  3  4  4  0  0  0  0
  4  5  4  0  0  0  0
  5  6  1  0  0  0  0
  6  7  2  0  0  0  0
  6  8  1  0  0  0  0
  5  9  4  0  0  0  0
  9 10  4  0  0  0  0
 10 11  1  0  0  0  0
 11 12  4  0  0  0  0
 12 13  4  0  0  0  0
 13 14  4  0  0  0  0
 14 15  1  0  0  0  0
 15 16  4  0  0  0  0
 16 17  1  0  0  0  0
 16 18  4  0  0  0  0
 18 19  4  0  0  0  0
 19 20  4  0  0  0  0
 15 20  4  0  0  0  0
 20 21  1  0  0  0  0
 14 22  4  0  0  0  0
 22 23  4  0  0  0  0
 11 23  4  0  0  0  0
 10 24  4  0  0  0  0
 24 25  4  0  0  0  0
  4 25  4  0  0  0  0
 25 26  4  0  0  0  0
  2 26  4  0  0  0  0
M  STY  1   1 DAT
M  SAL   1  1  26
M  SDT   1 MRV_IMPLICIT_H                                        
M  SDD   1     0.5304   -0.4125    DR    ALL  0       0  
M  SED   1 IMPL_H1
M  END
> <IC50(uM)>
0.0028000000000000004

> <Outcome>
1.0

> <BindingDB ID>
51390146; 1045613

> <BindingDB MonomerID>
501671

> <BindingDB Ligand Name>
US11028054, Example 111

> <Curation/DataSource>
ChEMBL; US Patent

> <Article DOI>
?

> <PMID>
33214811; ?

> <Patent Number>
?; US11028054

> <Authors>
Abdel-Magid, AF; Thunuguntla, SS; Hosahalli, S; Panigrahi, SK; Schwarz, M; Arit, M

> <Link to Ligand in BindingDB>
http://www.bindingdb.org/bind/chemsearch/marvin/MolStructure.jsp?monomerid=501671

> <Link to Ligand-Target Pair in BindingDB>
http://www.bindingdb.org/jsp/dbsearch/PrimarySearch_ki.jsp?energyterm=kJ/mole&tag=r21&monomerid=501671&enzyme=Dihydroorotate+dehydrogenase&column=ki&startPg=0&Increment=50&submit=Search

> <PubChem CID>
135313634; ?

> <PubChem SID>
459087003; ?

$$$$

  Mrv2115 07222212352D          

 35 37  0  0  0  0            999 V2000
    0.7145   -3.7125    0.0000 C   0  0  0  0  0  0  0  0  0  0  0  0
    1.4289   -4.1250    0.0000 C   0  0  0  0  0  0  0  0  0  0  0  0
    2.1434   -3.7125    0.0000 C   0  0  0  0  0  0  0  0  0  0  0  0
    1.4289   -4.9500    0.0000 C   0  0  0  0  0  0  0  0  0  0  0  0
    0.7615   -5.4349    0.0000 N   0  0  0  0  0  0  0  0  0  0  0  0
    1.0164   -6.2195    0.0000 N   0  0  0  0  0  0  0  0  0  0  0  0
    0.5315   -6.8870    0.0000 C   0  0  0  0  0  0  0  0  0  0  0  0
    0.8671   -7.6407    0.0000 C   0  0  0  0  0  0  0  0  0  0  0  0
    0.3822   -8.3081    0.0000 C   0  0  0  0  0  0  0  0  0  0  0  0
    0.7177   -9.0618    0.0000 O   0  0  0  0  0  0  0  0  0  0  0  0
    1.5382   -9.1480    0.0000 C   0  0  0  0  0  0  0  0  0  0  0  0
    2.0231   -8.4806    0.0000 C   0  0  0  0  0  0  0  0  0  0  0  0
    1.8738   -9.9017    0.0000 C   0  0  0  0  0  0  0  0  0  0  0  0
    1.1201  -10.2372    0.0000 F   0  0  0  0  0  0  0  0  0  0  0  0
    2.6274   -9.5661    0.0000 F   0  0  0  0  0  0  0  0  0  0  0  0
    2.2093  -10.6554    0.0000 F   0  0  0  0  0  0  0  0  0  0  0  0
   -0.4383   -8.2219    0.0000 C   0  0  0  0  0  0  0  0  0  0  0  0
   -0.9232   -8.8893    0.0000 C   0  0  0  0  0  0  0  0  0  0  0  0
   -1.7437   -8.8031    0.0000 O   0  0  0  0  0  0  0  0  0  0  0  0
   -0.5877   -9.6430    0.0000 N   0  0  0  0  0  0  0  0  0  0  0  0
   -1.0726  -10.3104    0.0000 C   0  0  0  0  0  0  0  0  0  0  0  0
   -0.7371  -11.0641    0.0000 C   0  0  0  0  0  0  0  0  0  0  0  0
    0.0834  -11.1503    0.0000 F   0  0  0  0  0  0  0  0  0  0  0  0
   -1.2220  -11.7315    0.0000 C   0  0  0  0  0  0  0  0  0  0  0  0
   -2.0425  -11.6453    0.0000 C   0  0  0  0  0  0  0  0  0  0  0  0
   -2.3780  -10.8916    0.0000 C   0  0  0  0  0  0  0  0  0  0  0  0
   -1.8931  -10.2242    0.0000 C   0  0  0  0  0  0  0  0  0  0  0  0
   -2.2287   -9.4705    0.0000 F   0  0  0  0  0  0  0  0  0  0  0  0
   -0.7739   -7.4682    0.0000 C   0  0  0  0  0  0  0  0  0  0  0  0
   -0.2890   -6.8007    0.0000 C   0  0  0  0  0  0  0  0  0  0  0  0
   -0.6245   -6.0471    0.0000 F   0  0  0  0  0  0  0  0  0  0  0  0
    1.8414   -6.2195    0.0000 C   0  0  0  0  0  0  0  0  0  0  0  0
    2.3264   -6.8870    0.0000 O   0  0  0  0  0  0  0  0  0  0  0  0
    2.0964   -5.4349    0.0000 N   0  0  0  0  0  0  0  0  0  0  0  0
    2.8810   -5.1800    0.0000 C   0  0  0  0  0  0  0  0  0  0  0  0
  1  2  1  0  0  0  0
  2  3  1  0  0  0  0
  2  4  1  0  0  0  0
  4  5  4  0  0  0  0
  5  6  4  0  0  0  0
  6  7  1  0  0  0  0
  7  8  4  0  0  0  0
  8  9  4  0  0  0  0
  9 10  1  0  0  0  0
 10 11  1  0  0  0  0
 11 12  1  0  0  0  0
 11 13  1  0  0  0  0
 13 14  1  0  0  0  0
 13 15  1  0  0  0  0
 13 16  1  0  0  0  0
  9 17  4  0  0  0  0
 17 18  1  0  0  0  0
 18 19  2  0  0  0  0
 18 20  1  0  0  0  0
 20 21  1  0  0  0  0
 21 22  4  0  0  0  0
 22 23  1  0  0  0  0
 22 24  4  0  0  0  0
 24 25  4  0  0  0  0
 25 26  4  0  0  0  0
 26 27  4  0  0  0  0
 21 27  4  0  0  0  0
 27 28  1  0  0  0  0
 17 29  4  0  0  0  0
 29 30  4  0  0  0  0
  7 30  4  0  0  0  0
 30 31  1  0  0  0  0
  6 32  4  0  0  0  0
 32 33  2  0  0  0  0
 32 34  4  0  0  0  0
  4 34  4  0  0  0  0
 34 35  1  0  0  0  0
M  END
> <IC50(uM)>
0.013

> <Outcome>
1.0

> <BindingDB ID>
1098685; 972531

> <BindingDB MonomerID>
470406

> <BindingDB Ligand Name>
N-(2,6-difluorophenyl)-5-fluoro-4-[4-methyl-5-oxo-3-(propan-2-yl)-4,5-dihydro-1H-1,2,4-triazol-1-yl]-2-{[(2S)-1,1,1-trifluoropropan-2-yl]oxy}benzamide::US10815215, Example 65::US11130745, Example 65; N-(2,6-difluorophenyl)-5-fluoro-4-[4-methyl-5-oxo-3-(propan-2-yl)-4,5-dihydro-1H-1,2,4-triazol-1-yl]-2-{[(2S)-1,1,1-trifluoropropan-2-yl]oxy}benzamide::US10815215, Example 65

> <Curation/DataSource>
US Patent

> <Article DOI>
?

> <PMID>
?

> <Patent Number>
US11130745; US10815215

> <Authors>
Gradl, SN; Nguyen, D; Eis, K; Gunther, J; Stellfeld, T; Janzer, A; Christian, S; Muller, T; Sheikh, SE; Sykes, DB; Ferrara, SJ; Krober, M; Merz, C; Niehues, M; Schafer, M; Zimmermann, K; Nising, CF; Gradl, SN; Nguyen, D; Eis, K; Gunther, J; Stellfeld, T; Janzer, A; Christian, S; Muller, T; Sheikh, SE; Zhou, HJ; Zhao, C; Sykes, DB; Ferrara, SJ; Liu, K; Krober, M; Merz, C; Niehues, M; Schafer, M; Zimmermann, K; Nising, CF

> <Link to Ligand in BindingDB>
http://www.bindingdb.org/bind/chemsearch/marvin/MolStructure.jsp?monomerid=470406

> <Link to Ligand-Target Pair in BindingDB>
http://www.bindingdb.org/jsp/dbsearch/PrimarySearch_ki.jsp?energyterm=kJ/mole&tag=r21&monomerid=470406&enzyme=Dihydroorotate+dehydrogenase&column=ki&startPg=0&Increment=50&submit=Search

> <PubChem CID>
134469851

> <PubChem SID>
441609583

$$$$

  Mrv2115 07222212352D          

 30 33  0  0  0  0            999 V2000
    4.0668    2.3479    0.0000 C   0  0  0  0  0  0  0  0  0  0  0  0
    3.3523    1.9354    0.0000 C   0  0  0  0  0  0  0  0  0  0  0  0
    3.3523    1.1104    0.0000 C   0  0  0  0  0  0  0  0  0  0  0  0
    2.6378    0.6979    0.0000 C   0  0  0  0  0  0  0  0  0  0  0  0
    2.6378   -0.1271    0.0000 C   0  0  0  0  0  0  0  0  0  0  0  0
    1.9233   -0.5396    0.0000 O   0  0  0  0  0  0  0  0  0  0  0  0
    3.3523   -0.5396    0.0000 O   0  0  0  0  0  0  0  0  0  0  0  0
    1.9233    1.1104    0.0000 C   0  0  0  0  0  0  0  0  0  0  0  0
    1.1387    0.8555    0.0000 N   0  0  0  0  0  0  0  0  0  0  0  0
    0.6538    1.5229    0.0000 C   0  0  0  0  0  0  0  0  0  0  0  0
   -0.1712    1.5229    0.0000 C   0  0  0  0  0  0  0  0  0  0  0  0
   -0.5837    0.8085    0.0000 C   0  0  0  0  0  0  0  0  0  0  0  0
   -0.1712    0.0940    0.0000 F   0  0  0  0  0  0  0  0  0  0  0  0
   -1.4087    0.8085    0.0000 C   0  0  0  0  0  0  0  0  0  0  0  0
   -1.8212    0.0940    0.0000 F   0  0  0  0  0  0  0  0  0  0  0  0
   -1.8212    1.5229    0.0000 C   0  0  0  0  0  0  0  0  0  0  0  0
   -2.6462    1.5229    0.0000 C   0  0  0  0  0  0  0  0  0  0  0  0
   -3.0587    0.8085    0.0000 C   0  0  0  0  0  0  0  0  0  0  0  0
   -3.8837    0.8085    0.0000 C   0  0  0  0  0  0  0  0  0  0  0  0
   -4.2962    1.5229    0.0000 C   0  0  0  0  0  0  0  0  0  0  0  0
   -5.1212    1.5229    0.0000 F   0  0  0  0  0  0  0  0  0  0  0  0
   -3.8837    2.2374    0.0000 C   0  0  0  0  0  0  0  0  0  0  0  0
   -3.0587    2.2374    0.0000 C   0  0  0  0  0  0  0  0  0  0  0  0
   -1.4087    2.2374    0.0000 C   0  0  0  0  0  0  0  0  0  0  0  0
   -1.8212    2.9519    0.0000 F   0  0  0  0  0  0  0  0  0  0  0  0
   -0.5837    2.2374    0.0000 C   0  0  0  0  0  0  0  0  0  0  0  0
   -0.1712    2.9519    0.0000 F   0  0  0  0  0  0  0  0  0  0  0  0
    1.1387    2.1904    0.0000 N   0  0  0  0  0  0  0  0  0  0  0  0
    1.9233    1.9354    0.0000 C   0  0  0  0  0  0  0  0  0  0  0  0
    2.6378    2.3479    0.0000 C   0  0  0  0  0  0  0  0  0  0  0  0
  1  2  1  0  0  0  0
  2  3  4  0  0  0  0
  3  4  4  0  0  0  0
  4  5  1  0  0  0  0
  5  6  2  0  0  0  0
  5  7  1  0  0  0  0
  4  8  4  0  0  0  0
  8  9  4  0  0  0  0
  9 10  4  0  0  0  0
 10 11  1  0  0  0  0
 11 12  4  0  0  0  0
 12 13  1  0  0  0  0
 12 14  4  0  0  0  0
 14 15  1  0  0  0  0
 14 16  4  0  0  0  0
 16 17  1  0  0  0  0
 17 18  4  0  0  0  0
 18 19  4  0  0  0  0
 19 20  4  0  0  0  0
 20 21  1  0  0  0  0
 20 22  4  0  0  0  0
 22 23  4  0  0  0  0
 17 23  4  0  0  0  0
 16 24  4  0  0  0  0
 24 25  1  0  0  0  0
 24 26  4  0  0  0  0
 11 26  4  0  0  0  0
 26 27  1  0  0  0  0
 10 28  4  0  0  0  0
 28 29  4  0  0  0  0
  8 29  4  0  0  0  0
 29 30  4  0  0  0  0
  2 30  4  0  0  0  0
M  STY  1   1 DAT
M  SAL   1  1  28
M  SDT   1 MRV_IMPLICIT_H                                        
M  SDD   1     0.5304   -0.4125    DR    ALL  0       0  
M  SED   1 IMPL_H1
M  END
> <IC50(uM)>
0.118

> <Outcome>
1.0

> <BindingDB ID>
297836

> <BindingDB MonomerID>
155492

> <BindingDB Ligand Name>
US9006454, I134

> <Curation/DataSource>
US Patent

> <Article DOI>
?

> <PMID>
?

> <Patent Number>
US9006454

> <Authors>
Thunuguntla, SS; Subramanya, H; Kunnam, SR; Sanivaru Vijay, SR; Bingi, C; Kusanur, R; Schwarz, M; Arlt, M

> <Link to Ligand in BindingDB>
http://www.bindingdb.org/bind/chemsearch/marvin/MolStructure.jsp?monomerid=155492

> <Link to Ligand-Target Pair in BindingDB>
http://www.bindingdb.org/jsp/dbsearch/PrimarySearch_ki.jsp?energyterm=kJ/mole&tag=r21&monomerid=155492&enzyme=Dihydroorotate+dehydrogenase&column=ki&startPg=0&Increment=50&submit=Search

> <PubChem CID>
58073852

> <PubChem SID>
253658429

$$$$

  Mrv2115 07222212352D          

 20 21  0  0  0  0            999 V2000
   -0.1067   -0.0616    0.0000 C   0  0  0  0  0  0  0  0  0  0  0  0
    0.6078   -0.4741    0.0000 C   0  0  0  0  0  0  0  0  0  0  0  0
    1.3222   -0.0616    0.0000 O   0  0  0  0  0  0  0  0  0  0  0  0
    2.0367   -0.4741    0.0000 C   0  0  0  0  0  0  0  0  0  0  0  0
    2.7512   -0.0616    0.0000 O   0  0  0  0  0  0  0  0  0  0  0  0
    2.0367   -1.2991    0.0000 C   0  0  0  0  0  0  0  0  0  0  0  0
    1.3693   -1.7840    0.0000 C   0  0  0  0  0  0  0  0  0  0  0  0
    0.5846   -1.5291    0.0000 O   0  0  0  0  0  0  0  0  0  0  0  0
    1.6242   -2.5687    0.0000 C   0  0  0  0  0  0  0  0  0  0  0  0
    2.4492   -2.5687    0.0000 S   0  0  0  0  0  0  0  0  0  0  0  0
    2.7041   -1.7840    0.0000 C   0  0  0  0  0  0  0  0  0  0  0  0
    3.4888   -1.5291    0.0000 N   0  0  0  0  0  0  0  0  0  0  0  0
    4.1019   -2.0811    0.0000 C   0  0  0  0  0  0  0  0  0  0  0  0
    4.8865   -1.8262    0.0000 C   0  0  0  0  0  0  0  0  0  0  0  0
    5.4996   -2.3782    0.0000 C   0  0  0  0  0  0  0  0  0  0  0  0
    5.3281   -3.1852    0.0000 C   0  0  0  0  0  0  0  0  0  0  0  0
    5.9411   -3.7372    0.0000 C   0  0  0  0  0  0  0  0  0  0  0  0
    4.5434   -3.4401    0.0000 C   0  0  0  0  0  0  0  0  0  0  0  0
    4.3719   -4.2471    0.0000 F   0  0  0  0  0  0  0  0  0  0  0  0
    3.9303   -2.8881    0.0000 C   0  0  0  0  0  0  0  0  0  0  0  0
  1  2  1  0  0  0  0
  2  3  1  0  0  0  0
  3  4  1  0  0  0  0
  4  5  2  0  0  0  0
  4  6  1  0  0  0  0
  6  7  4  0  0  0  0
  7  8  1  0  0  0  0
  7  9  4  0  0  0  0
  9 10  4  0  0  0  0
 10 11  4  0  0  0  0
  6 11  4  0  0  0  0
 11 12  1  0  0  0  0
 12 13  1  0  0  0  0
 13 14  4  0  0  0  0
 14 15  4  0  0  0  0
 15 16  4  0  0  0  0
 16 17  1  0  0  0  0
 16 18  4  0  0  0  0
 18 19  1  0  0  0  0
 18 20  4  0  0  0  0
 13 20  4  0  0  0  0
M  END
> <IC50(uM)>
50.0

> <Outcome>
0.0

> <BindingDB ID>
51079174

> <BindingDB MonomerID>
50441282

> <BindingDB Ligand Name>
CHEMBL2431511

> <Curation/DataSource>
ChEMBL

> <Article DOI>
10.1021/jm400938g

> <PMID>
24073986

> <Patent Number>
?

> <Authors>
Xu, M; Zhu, J; Diao, Y; Zhou, H; Ren, X; Sun, D; Huang, J; Han, D; Zhao, Z; Zhu, L; Xu, Y; Li, H

> <Link to Ligand in BindingDB>
http://www.bindingdb.org/bind/chemsearch/marvin/MolStructure.jsp?monomerid=50441282

> <Link to Ligand-Target Pair in BindingDB>
http://www.bindingdb.org/jsp/dbsearch/PrimarySearch_ki.jsp?energyterm=kJ/mole&tag=r21&monomerid=50441282&enzyme=Dihydroorotate+dehydrogenase&column=ki&startPg=0&Increment=50&submit=Search

> <PubChem CID>
91898843

> <PubChem SID>
175453599

$$$$

  Mrv2115 07222212352D          

 18 19  0  0  0  0            999 V2000
   -0.7145   -3.7125    0.0000 C   0  0  0  0  0  0  0  0  0  0  0  0
   -0.7145   -2.8875    0.0000 C   0  0  0  0  0  0  0  0  0  0  0  0
   -1.4289   -2.4750    0.0000 C   0  0  0  0  0  0  0  0  0  0  0  0
    0.0000   -2.4750    0.0000 C   0  0  0  0  0  0  0  0  0  0  0  0
    0.0000   -1.6500    0.0000 C   0  0  0  0  0  0  0  0  0  0  0  0
    0.7145   -1.2375    0.0000 C   0  0  0  0  0  0  0  0  0  0  0  0
    0.7145   -0.4125    0.0000 C   0  0  0  0  0  0  0  0  0  0  0  0
    0.0000    0.0000    0.0000 O   0  0  0  0  0  0  0  0  0  0  0  0
    1.4289    0.0000    0.0000 C   0  0  0  0  0  0  0  0  0  0  0  0
    1.4289    0.8250    0.0000 O   0  0  0  0  0  0  0  0  0  0  0  0
    2.1434   -0.4125    0.0000 C   0  0  0  0  0  0  0  0  0  0  0  0
    2.8579    0.0000    0.0000 C   0  0  0  0  0  0  0  0  0  0  0  0
    3.5724   -0.4125    0.0000 C   0  0  0  0  0  0  0  0  0  0  0  0
    3.5724   -1.2375    0.0000 C   0  0  0  0  0  0  0  0  0  0  0  0
    2.8579   -1.6500    0.0000 C   0  0  0  0  0  0  0  0  0  0  0  0
    2.1434   -1.2375    0.0000 C   0  0  0  0  0  0  0  0  0  0  0  0
    1.4289   -1.6500    0.0000 C   0  0  0  0  0  0  0  0  0  0  0  0
    1.4289   -2.4750    0.0000 O   0  0  0  0  0  0  0  0  0  0  0  0
  1  2  1  0  0  0  0
  2  3  1  0  0  0  0
  2  4  1  0  0  0  0
  4  5  2  0  0  0  0
  5  6  1  0  0  0  0
  6  7  2  0  0  0  0
  7  8  1  0  0  0  0
  7  9  1  0  0  0  0
  9 10  2  0  0  0  0
  9 11  1  0  0  0  0
 11 12  4  0  0  0  0
 12 13  4  0  0  0  0
 13 14  4  0  0  0  0
 14 15  4  0  0  0  0
 15 16  4  0  0  0  0
 11 16  4  0  0  0  0
 16 17  1  0  0  0  0
  6 17  1  0  0  0  0
 17 18  2  0  0  0  0
M  END
> <IC50(uM)>
10.0

> <Outcome>
0.0

> <BindingDB ID>
51282853

> <BindingDB MonomerID>
50523229

> <BindingDB Ligand Name>
CHEMBL62718

> <Curation/DataSource>
ChEMBL

> <Article DOI>
10.1016/j.ejmech.2019.02.018

> <PMID>
30776695

> <Patent Number>
?

> <Authors>
Calil, FA; David, JS; Chiappetta, ERC; Fumagalli, F; Mello, RB; Leite, FHA; Castilho, MS; Emery, FS; Nonato, MC

> <Link to Ligand in BindingDB>
http://www.bindingdb.org/bind/chemsearch/marvin/MolStructure.jsp?monomerid=50523229

> <Link to Ligand-Target Pair in BindingDB>
http://www.bindingdb.org/jsp/dbsearch/PrimarySearch_ki.jsp?energyterm=kJ/mole&tag=r21&monomerid=50523229&enzyme=Dihydroorotate+dehydrogenase&column=ki&startPg=0&Increment=50&submit=Search

> <PubChem CID>
5376552

> <PubChem SID>
440731811

$$$$

  Mrv2115 07222212352D          

 36 39  0  0  0  0            999 V2000
   -3.1034    2.1599    0.0000 C   0  0  0  0  0  0  0  0  0  0  0  0
   -2.6909    1.4455    0.0000 C   0  0  0  0  0  0  0  0  0  0  0  0
   -3.1034    0.7310    0.0000 O   0  0  0  0  0  0  0  0  0  0  0  0
   -2.6909    0.0165    0.0000 C   0  0  0  0  0  0  0  0  0  0  0  0
   -1.8659    0.0165    0.0000 C   0  0  0  0  0  0  0  0  0  0  0  0
   -1.4534   -0.6979    0.0000 C   0  0  0  0  0  0  0  0  0  0  0  0
   -0.6284   -0.6979    0.0000 N   0  0  0  0  0  0  0  0  0  0  0  0
   -0.1435   -1.3654    0.0000 N   0  0  0  0  0  0  0  0  0  0  0  0
    0.6411   -1.1104    0.0000 C   0  0  0  0  0  0  0  0  0  0  0  0
    0.6411   -0.2854    0.0000 N   0  0  0  0  0  0  0  0  0  0  0  0
   -0.1435   -0.0305    0.0000 C   0  0  0  0  0  0  0  0  0  0  0  0
   -0.3984    0.7541    0.0000 O   0  0  0  0  0  0  0  0  0  0  0  0
    1.3556    0.1271    0.0000 C   0  0  0  0  0  0  0  0  0  0  0  0
    2.0701   -0.2854    0.0000 C   0  0  0  0  0  0  0  0  0  0  0  0
    2.7845    0.1271    0.0000 O   0  0  0  0  0  0  0  0  0  0  0  0
    2.0701   -1.1104    0.0000 C   0  0  0  0  0  0  0  0  0  0  0  0
    1.3556   -1.5229    0.0000 C   0  0  0  0  0  0  0  0  0  0  0  0
   -1.8659   -1.4124    0.0000 C   0  0  0  0  0  0  0  0  0  0  0  0
   -1.4534   -2.1269    0.0000 F   0  0  0  0  0  0  0  0  0  0  0  0
   -2.6909   -1.4124    0.0000 C   0  0  0  0  0  0  0  0  0  0  0  0
   -3.1034   -0.6979    0.0000 C   0  0  0  0  0  0  0  0  0  0  0  0
   -3.9284   -0.6979    0.0000 C   0  0  0  0  0  0  0  0  0  0  0  0
   -4.3409    0.0165    0.0000 O   0  0  0  0  0  0  0  0  0  0  0  0
   -4.3409   -1.4124    0.0000 N   0  0  0  0  0  0  0  0  0  0  0  0
   -5.1659   -1.4124    0.0000 C   0  0  0  0  0  0  0  0  0  0  0  0
   -5.5784   -2.1269    0.0000 C   0  0  0  0  0  0  0  0  0  0  0  0
   -5.1659   -2.8414    0.0000 F   0  0  0  0  0  0  0  0  0  0  0  0
   -6.4034   -2.1269    0.0000 C   0  0  0  0  0  0  0  0  0  0  0  0
   -6.8159   -1.4124    0.0000 C   0  0  0  0  0  0  0  0  0  0  0  0
   -6.4034   -0.6979    0.0000 C   0  0  0  0  0  0  0  0  0  0  0  0
   -5.5784   -0.6979    0.0000 C   0  0  0  0  0  0  0  0  0  0  0  0
   -5.1659    0.0165    0.0000 F   0  0  0  0  0  0  0  0  0  0  0  0
   -1.8659    1.4455    0.0000 C   0  0  0  0  0  0  0  0  0  0  0  0
   -1.8659    0.6205    0.0000 F   0  0  0  0  0  0  0  0  0  0  0  0
   -1.8659    2.2705    0.0000 F   0  0  0  0  0  0  0  0  0  0  0  0
   -1.0409    1.4455    0.0000 F   0  0  0  0  0  0  0  0  0  0  0  0
  1  2  1  0  0  0  0
  2  3  1  0  0  0  0
  3  4  1  0  0  0  0
  4  5  4  0  0  0  0
  5  6  4  0  0  0  0
  6  7  1  0  0  0  0
  7  8  4  0  0  0  0
  8  9  4  0  0  0  0
  9 10  4  0  0  0  0
 10 11  4  0  0  0  0
  7 11  4  0  0  0  0
 11 12  2  0  0  0  0
 10 13  1  0  0  0  0
 13 14  1  0  0  0  0
 14 15  1  0  0  0  0
 14 16  1  0  0  0  0
 16 17  2  0  0  0  0
  9 17  1  0  0  0  0
  6 18  4  0  0  0  0
 18 19  1  0  0  0  0
 18 20  4  0  0  0  0
 20 21  4  0  0  0  0
  4 21  4  0  0  0  0
 21 22  1  0  0  0  0
 22 23  2  0  0  0  0
 22 24  1  0  0  0  0
 24 25  1  0  0  0  0
 25 26  4  0  0  0  0
 26 27  1  0  0  0  0
 26 28  4  0  0  0  0
 28 29  4  0  0  0  0
 29 30  4  0  0  0  0
 30 31  4  0  0  0  0
 25 31  4  0  0  0  0
 31 32  1  0  0  0  0
  2 33  1  0  0  0  0
 33 34  1  0  0  0  0
 33 35  1  0  0  0  0
 33 36  1  0  0  0  0
M  END
> <IC50(uM)>
100.0

> <Outcome>
0.0

> <BindingDB ID>
1020701

> <BindingDB MonomerID>
490627

> <BindingDB Ligand Name>
N-(2,6-difluorophenyl)-5-fluoro-4-(6-hydroxy-3-oxo-5,6-dihydro[1,2,4]triazolo[4,3-a]pyridin-2(3H)-yl)-2-{[(2S)-1,1,1-trifluoropropan-2-yl]oxy}benzamide::US10968216, Example 295

> <Curation/DataSource>
US Patent

> <Article DOI>
?

> <PMID>
?

> <Patent Number>
US10968216

> <Authors>
Gradl, SN; Nguyen, D; Eis, K; Gunther, J; Stellfeld, T; Janzer, A; Christian, S; Mueller, T; Sheikh, SE; Zhou, HJ; Zhao, C; Sykes, DB; Ferrara, SJ; Liu, K; Herbert, SA; Merz, C; Niehues, M; Nising, CF; Schafer, M; Zimmermann, K; Knablein, J; Thede, K; Faupel, T

> <Link to Ligand in BindingDB>
http://www.bindingdb.org/bind/chemsearch/marvin/MolStructure.jsp?monomerid=490627

> <Link to Ligand-Target Pair in BindingDB>
http://www.bindingdb.org/jsp/dbsearch/PrimarySearch_ki.jsp?energyterm=kJ/mole&tag=r21&monomerid=490627&enzyme=Dihydroorotate+dehydrogenase&column=ki&startPg=0&Increment=50&submit=Search

> <PubChem CID>
142335908

> <PubChem SID>
447117353

$$$$

  Mrv2115 07222212352D          

 35 38  0  0  0  0            999 V2000
   -5.1659    1.4455    0.0000 C   0  0  0  0  0  0  0  0  0  0  0  0
   -4.3409    1.4455    0.0000 C   0  0  0  0  0  0  0  0  0  0  0  0
   -3.9284    2.1599    0.0000 C   0  0  0  0  0  0  0  0  0  0  0  0
   -3.1034    2.1599    0.0000 C   0  0  0  0  0  0  0  0  0  0  0  0
   -2.6909    1.4455    0.0000 C   0  0  0  0  0  0  0  0  0  0  0  0
   -1.8659    1.4455    0.0000 F   0  0  0  0  0  0  0  0  0  0  0  0
   -3.1034    0.7310    0.0000 C   0  0  0  0  0  0  0  0  0  0  0  0
   -3.9284    0.7310    0.0000 C   0  0  0  0  0  0  0  0  0  0  0  0
   -4.3409    0.0165    0.0000 N   0  0  0  0  0  0  0  0  0  0  0  0
   -3.9284   -0.6979    0.0000 C   0  0  0  0  0  0  0  0  0  0  0  0
   -4.3409   -1.4124    0.0000 O   0  0  0  0  0  0  0  0  0  0  0  0
   -3.1034   -0.6979    0.0000 C   0  0  0  0  0  0  0  0  0  0  0  0
   -2.6909    0.0165    0.0000 C   0  0  0  0  0  0  0  0  0  0  0  0
   -1.8659    0.0165    0.0000 C   0  0  0  0  0  0  0  0  0  0  0  0
   -1.4534    0.7310    0.0000 F   0  0  0  0  0  0  0  0  0  0  0  0
   -1.4534   -0.6979    0.0000 C   0  0  0  0  0  0  0  0  0  0  0  0
   -0.6284   -0.6979    0.0000 N   0  0  0  0  0  0  0  0  0  0  0  0
   -0.1435   -1.3654    0.0000 N   0  0  0  0  0  0  0  0  0  0  0  0
    0.6411   -1.1104    0.0000 C   0  0  0  0  0  0  0  0  0  0  0  0
    0.6411   -0.2854    0.0000 N   0  0  0  0  0  0  0  0  0  0  0  0
   -0.1435   -0.0305    0.0000 C   0  0  0  0  0  0  0  0  0  0  0  0
   -0.3984    0.7541    0.0000 O   0  0  0  0  0  0  0  0  0  0  0  0
    1.3556    0.1271    0.0000 C   0  0  0  0  0  0  0  0  0  0  0  0
    2.0701   -0.2854    0.0000 C   0  0  0  0  0  0  0  0  0  0  0  0
    2.0701   -1.1104    0.0000 C   0  0  0  0  0  0  0  0  0  0  0  0
    1.3556   -1.5229    0.0000 C   0  0  0  0  0  0  0  0  0  0  0  0
   -1.8659   -1.4124    0.0000 C   0  0  0  0  0  0  0  0  0  0  0  0
   -2.6909   -1.4124    0.0000 C   0  0  0  0  0  0  0  0  0  0  0  0
   -3.1034   -2.1269    0.0000 O   0  0  0  0  0  0  0  0  0  0  0  0
   -2.6909   -2.8414    0.0000 C   0  0  0  0  0  0  0  0  0  0  0  0
   -1.8659   -2.8414    0.0000 C   0  0  0  0  0  0  0  0  0  0  0  0
   -3.1034   -3.5558    0.0000 C   0  0  0  0  0  0  0  0  0  0  0  0
   -3.8179   -3.1433    0.0000 F   0  0  0  0  0  0  0  0  0  0  0  0
   -2.3890   -3.9683    0.0000 F   0  0  0  0  0  0  0  0  0  0  0  0
   -3.5159   -4.2703    0.0000 F   0  0  0  0  0  0  0  0  0  0  0  0
  1  2  1  0  0  0  0
  2  3  4  0  0  0  0
  3  4  4  0  0  0  0
  4  5  4  0  0  0  0
  5  6  1  0  0  0  0
  5  7  4  0  0  0  0
  7  8  4  0  0  0  0
  2  8  4  0  0  0  0
  8  9  1  0  0  0  0
  9 10  1  0  0  0  0
 10 11  2  0  0  0  0
 10 12  1  0  0  0  0
 12 13  4  0  0  0  0
 13 14  4  0  0  0  0
 14 15  1  0  0  0  0
 14 16  4  0  0  0  0
 16 17  1  0  0  0  0
 17 18  4  0  0  0  0
 18 19  4  0  0  0  0
 19 20  4  0  0  0  0
 20 21  4  0  0  0  0
 17 21  4  0  0  0  0
 21 22  2  0  0  0  0
 20 23  1  0  0  0  0
 23 24  1  0  0  0  0
 24 25  1  0  0  0  0
 25 26  1  0  0  0  0
 19 26  1  0  0  0  0
 16 27  4  0  0  0  0
 27 28  4  0  0  0  0
 12 28  4  0  0  0  0
 28 29  1  0  0  0  0
 29 30  1  0  0  0  0
 30 31  1  0  0  0  0
 30 32  1  0  0  0  0
 32 33  1  0  0  0  0
 32 34  1  0  0  0  0
 32 35  1  0  0  0  0
M  END
> <IC50(uM)>
0.015

> <Outcome>
1.0

> <BindingDB ID>
1020464

> <BindingDB MonomerID>
490412

> <BindingDB Ligand Name>
5-fluoro-N-(5-fluoro-2-methylphenyl)-4-(3-oxo-5,6,7,8-tetrahydro[1,2,4]triazolo[4,3-a]pyridin-2(3H)-yl)-2-{[(2S)-1,1,1-trifluoropropan-2-yl]oxy}benzamide::US10968216, Example 80

> <Curation/DataSource>
US Patent

> <Article DOI>
?

> <PMID>
?

> <Patent Number>
US10968216

> <Authors>
Gradl, SN; Nguyen, D; Eis, K; Gunther, J; Stellfeld, T; Janzer, A; Christian, S; Mueller, T; Sheikh, SE; Zhou, HJ; Zhao, C; Sykes, DB; Ferrara, SJ; Liu, K; Herbert, SA; Merz, C; Niehues, M; Nising, CF; Schafer, M; Zimmermann, K; Knablein, J; Thede, K; Faupel, T

> <Link to Ligand in BindingDB>
http://www.bindingdb.org/bind/chemsearch/marvin/MolStructure.jsp?monomerid=490412

> <Link to Ligand-Target Pair in BindingDB>
http://www.bindingdb.org/jsp/dbsearch/PrimarySearch_ki.jsp?energyterm=kJ/mole&tag=r21&monomerid=490412&enzyme=Dihydroorotate+dehydrogenase&column=ki&startPg=0&Increment=50&submit=Search

> <PubChem CID>
142335901

> <PubChem SID>
447117139

$$$$

  Mrv2115 07222212352D          

 20 23  0  0  0  0            999 V2000
    2.6378   -2.3479    0.0000 C   0  0  0  0  0  0  0  0  0  0  0  0
    1.9233   -2.7604    0.0000 C   0  0  0  0  0  0  0  0  0  0  0  0
    1.9233   -3.5854    0.0000 C   0  0  0  0  0  0  0  0  0  0  0  0
    1.2089   -3.9979    0.0000 C   0  0  0  0  0  0  0  0  0  0  0  0
    1.2089   -4.8229    0.0000 N   0  0  0  0  0  0  0  0  0  0  0  0
    1.9233   -5.2354    0.0000 C   0  0  0  0  0  0  0  0  0  0  0  0
    2.6378   -4.8229    0.0000 C   0  0  0  0  0  0  0  0  0  0  0  0
    3.3523   -5.2354    0.0000 C   0  0  0  0  0  0  0  0  0  0  0  0
    3.3523   -6.0604    0.0000 C   0  0  0  0  0  0  0  0  0  0  0  0
    2.6378   -6.4729    0.0000 C   0  0  0  0  0  0  0  0  0  0  0  0
    1.9233   -6.0604    0.0000 C   0  0  0  0  0  0  0  0  0  0  0  0
    2.8093   -7.2799    0.0000 C   0  0  0  0  0  0  0  0  0  0  0  0
    3.6298   -7.3662    0.0000 C   0  0  0  0  0  0  0  0  0  0  0  0
    3.9654   -6.6125    0.0000 C   0  0  0  0  0  0  0  0  0  0  0  0
    0.4944   -3.5854    0.0000 N   0  0  0  0  0  0  0  0  0  0  0  0
   -0.2902   -3.8404    0.0000 N   0  0  0  0  0  0  0  0  0  0  0  0
   -0.7751   -3.1729    0.0000 C   0  0  0  0  0  0  0  0  0  0  0  0
   -0.2902   -2.5055    0.0000 N   0  0  0  0  0  0  0  0  0  0  0  0
    0.4944   -2.7604    0.0000 C   0  0  0  0  0  0  0  0  0  0  0  0
    1.2089   -2.3479    0.0000 N   0  0  0  0  0  0  0  0  0  0  0  0
  1  2  1  0  0  0  0
  2  3  4  0  0  0  0
  3  4  4  0  0  0  0
  4  5  1  0  0  0  0
  5  6  1  0  0  0  0
  6  7  4  0  0  0  0
  7  8  4  0  0  0  0
  8  9  4  0  0  0  0
  9 10  4  0  0  0  0
 10 11  4  0  0  0  0
  6 11  4  0  0  0  0
 10 12  1  0  0  0  0
 12 13  1  0  0  0  0
 13 14  1  0  0  0  0
  9 14  1  0  0  0  0
  4 15  4  0  0  0  0
 15 16  4  0  0  0  0
 16 17  4  0  0  0  0
 17 18  4  0  0  0  0
 18 19  4  0  0  0  0
 15 19  4  0  0  0  0
 19 20  4  0  0  0  0
  2 20  4  0  0  0  0
M  END
> <IC50(uM)>
100.0

> <Outcome>
0.0

> <BindingDB ID>
50643211

> <BindingDB MonomerID>
50345443

> <BindingDB Ligand Name>
CHEMBL586157::N-(2,3-Dihydro1H-inden-5-yl)-5-methyl-[1,2,4]triazolo[1,5-a]pyrimidin-7-amine::TCMDC-123574

> <Curation/DataSource>
ChEMBL

> <Article DOI>
10.1021/jm200265b

> <PMID>
21517059

> <Patent Number>
?

> <Authors>
Gujjar, R; El Mazouni, F; White, KL; White, J; Creason, S; Shackleford, DM; Deng, X; Charman, WN; Bathurst, I; Burrows, J; Floyd, DM; Matthews, D; Buckner, FS; Charman, SA; Phillips, MA; Rathod, PK

> <Link to Ligand in BindingDB>
http://www.bindingdb.org/bind/chemsearch/marvin/MolStructure.jsp?monomerid=50345443

> <Link to Ligand-Target Pair in BindingDB>
http://www.bindingdb.org/jsp/dbsearch/PrimarySearch_ki.jsp?energyterm=kJ/mole&tag=r21&monomerid=50345443&enzyme=Dihydroorotate+dehydrogenase&column=ki&startPg=0&Increment=50&submit=Search

> <PubChem CID>
3227262

> <PubChem SID>
131348379

$$$$

  Mrv2115 07222212352D          

 32 35  0  0  0  0            999 V2000
   -0.7145    1.2375    0.0000 C   0  0  0  0  0  0  0  0  0  0  0  0
    0.0000    0.8250    0.0000 C   0  0  0  0  0  0  0  0  0  0  0  0
    0.0000   -0.0000    0.0000 O   0  0  0  0  0  0  0  0  0  0  0  0
    0.7145   -0.4125    0.0000 C   0  0  0  0  0  0  0  0  0  0  0  0
    1.4289   -0.0000    0.0000 O   0  0  0  0  0  0  0  0  0  0  0  0
    0.7145   -1.2375    0.0000 C   0  0  0  0  0  0  0  0  0  0  0  0
    1.3819   -1.7224    0.0000 S   0  0  0  0  0  0  0  0  0  0  0  0
    1.1270   -2.5070    0.0000 C   0  0  0  0  0  0  0  0  0  0  0  0
    1.6119   -3.1745    0.0000 N   0  0  0  0  0  0  0  0  0  0  0  0
    1.2763   -3.9282    0.0000 C   0  0  0  0  0  0  0  0  0  0  0  0
    1.7613   -4.5956    0.0000 C   0  0  0  0  0  0  0  0  0  0  0  0
    1.4257   -5.3493    0.0000 C   0  0  0  0  0  0  0  0  0  0  0  0
    0.6052   -5.4355    0.0000 C   0  0  0  0  0  0  0  0  0  0  0  0
    0.2697   -6.1892    0.0000 C   0  0  0  0  0  0  0  0  0  0  0  0
    0.7546   -6.8566    0.0000 C   0  0  0  0  0  0  0  0  0  0  0  0
    0.4190   -7.6103    0.0000 C   0  0  0  0  0  0  0  0  0  0  0  0
   -0.4015   -7.6965    0.0000 C   0  0  0  0  0  0  0  0  0  0  0  0
   -0.8864   -7.0291    0.0000 C   0  0  0  0  0  0  0  0  0  0  0  0
   -1.7069   -7.1153    0.0000 O   0  0  0  0  0  0  0  0  0  0  0  0
   -2.0424   -7.8690    0.0000 C   0  0  0  0  0  0  0  0  0  0  0  0
   -0.5508   -6.2754    0.0000 C   0  0  0  0  0  0  0  0  0  0  0  0
    0.1203   -4.7681    0.0000 C   0  0  0  0  0  0  0  0  0  0  0  0
    0.4559   -4.0144    0.0000 C   0  0  0  0  0  0  0  0  0  0  0  0
   -0.0291   -3.3470    0.0000 F   0  0  0  0  0  0  0  0  0  0  0  0
    0.3020   -2.5070    0.0000 N   0  0  0  0  0  0  0  0  0  0  0  0
    0.0470   -1.7224    0.0000 C   0  0  0  0  0  0  0  0  0  0  0  0
   -0.7376   -1.4675    0.0000 C   0  0  0  0  0  0  0  0  0  0  0  0
   -1.3507   -2.0195    0.0000 C   0  0  0  0  0  0  0  0  0  0  0  0
   -2.1353   -1.7646    0.0000 C   0  0  0  0  0  0  0  0  0  0  0  0
   -2.3068   -0.9576    0.0000 C   0  0  0  0  0  0  0  0  0  0  0  0
   -1.6937   -0.4056    0.0000 C   0  0  0  0  0  0  0  0  0  0  0  0
   -0.9091   -0.6605    0.0000 C   0  0  0  0  0  0  0  0  0  0  0  0
  1  2  1  0  0  0  0
  2  3  1  0  0  0  0
  3  4  1  0  0  0  0
  4  5  2  0  0  0  0
  4  6  1  0  0  0  0
  6  7  4  0  0  0  0
  7  8  4  0  0  0  0
  8  9  1  0  0  0  0
  9 10  1  0  0  0  0
 10 11  4  0  0  0  0
 11 12  4  0  0  0  0
 12 13  4  0  0  0  0
 13 14  1  0  0  0  0
 14 15  4  0  0  0  0
 15 16  4  0  0  0  0
 16 17  4  0  0  0  0
 17 18  4  0  0  0  0
 18 19  1  0  0  0  0
 19 20  1  0  0  0  0
 18 21  4  0  0  0  0
 14 21  4  0  0  0  0
 13 22  4  0  0  0  0
 22 23  4  0  0  0  0
 10 23  4  0  0  0  0
 23 24  1  0  0  0  0
  8 25  4  0  0  0  0
 25 26  4  0  0  0  0
  6 26  4  0  0  0  0
 26 27  1  0  0  0  0
 27 28  4  0  0  0  0
 28 29  4  0  0  0  0
 29 30  4  0  0  0  0
 30 31  4  0  0  0  0
 31 32  4  0  0  0  0
 27 32  4  0  0  0  0
M  END
> <IC50(uM)>
10.0

> <Outcome>
0.0

> <BindingDB ID>
50312495

> <BindingDB MonomerID>
50071802

> <BindingDB Ligand Name>
CHEMBL3410615

> <Curation/DataSource>
ChEMBL

> <Article DOI>
10.1021/jm501127s

> <PMID>
25580811

> <Patent Number>
?

> <Authors>
Zhu, J; Han, L; Diao, Y; Ren, X; Xu, M; Xu, L; Li, S; Li, Q; Dong, D; Huang, J; Liu, X; Zhao, Z; Wang, R; Zhu, L; Xu, Y; Qian, X; Li, H

> <Link to Ligand in BindingDB>
http://www.bindingdb.org/bind/chemsearch/marvin/MolStructure.jsp?monomerid=50071802

> <Link to Ligand-Target Pair in BindingDB>
http://www.bindingdb.org/jsp/dbsearch/PrimarySearch_ki.jsp?energyterm=kJ/mole&tag=r21&monomerid=50071802&enzyme=Dihydroorotate+dehydrogenase&column=ki&startPg=0&Increment=50&submit=Search

> <PubChem CID>
118732523

> <PubChem SID>
103965512

$$$$

  Mrv2115 07222212352D          

 24 27  0  0  0  0            999 V2000
    4.0668    2.3479    0.0000 C   0  0  0  0  0  0  0  0  0  0  0  0
    3.3523    1.9354    0.0000 C   0  0  0  0  0  0  0  0  0  0  0  0
    3.3523    1.1104    0.0000 C   0  0  0  0  0  0  0  0  0  0  0  0
    2.6378    0.6979    0.0000 C   0  0  0  0  0  0  0  0  0  0  0  0
    2.6378   -0.1271    0.0000 C   0  0  0  0  0  0  0  0  0  0  0  0
    1.9233   -0.5396    0.0000 O   0  0  0  0  0  0  0  0  0  0  0  0
    3.3523   -0.5396    0.0000 O   0  0  0  0  0  0  0  0  0  0  0  0
    1.9233    1.1104    0.0000 C   0  0  0  0  0  0  0  0  0  0  0  0
    1.1387    0.8555    0.0000 N   0  0  0  0  0  0  0  0  0  0  0  0
    0.6538    1.5229    0.0000 C   0  0  0  0  0  0  0  0  0  0  0  0
   -0.1712    1.5229    0.0000 C   0  0  0  0  0  0  0  0  0  0  0  0
   -0.5837    0.8085    0.0000 C   0  0  0  0  0  0  0  0  0  0  0  0
   -1.4087    0.8085    0.0000 C   0  0  0  0  0  0  0  0  0  0  0  0
   -1.8212    1.5229    0.0000 C   0  0  0  0  0  0  0  0  0  0  0  0
   -2.6462    1.5229    0.0000 C   0  0  0  0  0  0  0  0  0  0  0  0
   -3.1311    0.8555    0.0000 C   0  0  0  0  0  0  0  0  0  0  0  0
   -3.9157    1.1104    0.0000 C   0  0  0  0  0  0  0  0  0  0  0  0
   -3.9157    1.9354    0.0000 C   0  0  0  0  0  0  0  0  0  0  0  0
   -3.1311    2.1904    0.0000 S   0  0  0  0  0  0  0  0  0  0  0  0
   -1.4087    2.2374    0.0000 C   0  0  0  0  0  0  0  0  0  0  0  0
   -0.5837    2.2374    0.0000 C   0  0  0  0  0  0  0  0  0  0  0  0
    1.1387    2.1904    0.0000 N   0  0  0  0  0  0  0  0  0  0  0  0
    1.9233    1.9354    0.0000 C   0  0  0  0  0  0  0  0  0  0  0  0
    2.6378    2.3479    0.0000 C   0  0  0  0  0  0  0  0  0  0  0  0
  1  2  1  0  0  0  0
  2  3  4  0  0  0  0
  3  4  4  0  0  0  0
  4  5  1  0  0  0  0
  5  6  2  0  0  0  0
  5  7  1  0  0  0  0
  4  8  4  0  0  0  0
  8  9  4  0  0  0  0
  9 10  4  0  0  0  0
 10 11  1  0  0  0  0
 11 12  4  0  0  0  0
 12 13  4  0  0  0  0
 13 14  4  0  0  0  0
 14 15  1  0  0  0  0
 15 16  4  0  0  0  0
 16 17  4  0  0  0  0
 17 18  4  0  0  0  0
 18 19  4  0  0  0  0
 15 19  4  0  0  0  0
 14 20  4  0  0  0  0
 20 21  4  0  0  0  0
 11 21  4  0  0  0  0
 10 22  4  0  0  0  0
 22 23  4  0  0  0  0
  8 23  4  0  0  0  0
 23 24  4  0  0  0  0
  2 24  4  0  0  0  0
M  STY  1   1 DAT
M  SAL   1  1  22
M  SDT   1 MRV_IMPLICIT_H                                        
M  SDD   1     0.5304   -0.4125    DR    ALL  0       0  
M  SED   1 IMPL_H1
M  END
> <IC50(uM)>
1.68

> <Outcome>
0.0

> <BindingDB ID>
297851

> <BindingDB MonomerID>
155507

> <BindingDB Ligand Name>
US9006454, I149

> <Curation/DataSource>
US Patent

> <Article DOI>
?

> <PMID>
?

> <Patent Number>
US9006454

> <Authors>
Thunuguntla, SS; Subramanya, H; Kunnam, SR; Sanivaru Vijay, SR; Bingi, C; Kusanur, R; Schwarz, M; Arlt, M

> <Link to Ligand in BindingDB>
http://www.bindingdb.org/bind/chemsearch/marvin/MolStructure.jsp?monomerid=155507

> <Link to Ligand-Target Pair in BindingDB>
http://www.bindingdb.org/jsp/dbsearch/PrimarySearch_ki.jsp?energyterm=kJ/mole&tag=r21&monomerid=155507&enzyme=Dihydroorotate+dehydrogenase&column=ki&startPg=0&Increment=50&submit=Search

> <PubChem CID>
58073917

> <PubChem SID>
253658444

$$$$

  Mrv2115 07222212352D          

 28 29  0  0  0  0            999 V2000
    1.4289   -6.6000    0.0000 C   0  0  0  0  0  0  0  0  0  0  0  0
    2.1434   -6.1875    0.0000 C   0  0  0  0  0  0  0  0  0  0  0  0
    2.8579   -6.6000    0.0000 C   0  0  0  0  0  0  0  0  0  0  0  0
    2.8579   -7.4250    0.0000 O   0  0  0  0  0  0  0  0  0  0  0  0
    3.5724   -6.1875    0.0000 C   0  0  0  0  0  0  0  0  0  0  0  0
    3.5724   -5.3625    0.0000 C   0  0  0  0  0  0  0  0  0  0  0  0
    3.5724   -4.5375    0.0000 N   0  0  0  0  0  0  0  0  0  0  0  0
    4.2868   -6.6000    0.0000 C   0  0  0  0  0  0  0  0  0  0  0  0
    4.2868   -7.4250    0.0000 O   0  0  0  0  0  0  0  0  0  0  0  0
    5.0013   -6.1875    0.0000 N   0  0  0  0  0  0  0  0  0  0  0  0
    5.7158   -6.6000    0.0000 C   0  0  0  0  0  0  0  0  0  0  0  0
    5.7158   -7.4250    0.0000 C   0  0  0  0  0  0  0  0  0  0  0  0
    6.4302   -7.8375    0.0000 C   0  0  0  0  0  0  0  0  0  0  0  0
    7.1447   -7.4250    0.0000 C   0  0  0  0  0  0  0  0  0  0  0  0
    7.8592   -7.8375    0.0000 C   0  0  0  0  0  0  0  0  0  0  0  0
    8.5737   -7.4250    0.0000 C   0  0  0  0  0  0  0  0  0  0  0  0
    9.2881   -7.8375    0.0000 C   0  0  0  0  0  0  0  0  0  0  0  0
    9.2881   -8.6625    0.0000 C   0  0  0  0  0  0  0  0  0  0  0  0
   10.0026   -9.0750    0.0000 F   0  0  0  0  0  0  0  0  0  0  0  0
    8.5737   -9.0750    0.0000 C   0  0  0  0  0  0  0  0  0  0  0  0
    7.8592   -8.6625    0.0000 C   0  0  0  0  0  0  0  0  0  0  0  0
    7.1447   -9.0750    0.0000 C   0  0  0  0  0  0  0  0  0  0  0  0
    7.1447   -6.6000    0.0000 C   0  0  0  0  0  0  0  0  0  0  0  0
    7.8592   -6.1875    0.0000 C   0  0  0  0  0  0  0  0  0  0  0  0
    7.8592   -5.3625    0.0000 O   0  0  0  0  0  0  0  0  0  0  0  0
    8.5737   -6.6000    0.0000 O   0  0  0  0  0  0  0  0  0  0  0  0
    9.2881   -6.1875    0.0000 C   0  0  0  0  0  0  0  0  0  0  0  0
    6.4302   -6.1875    0.0000 C   0  0  0  0  0  0  0  0  0  0  0  0
  1  2  1  0  0  0  0
  2  3  1  0  0  0  0
  3  4  2  0  0  0  0
  3  5  1  0  0  0  0
  5  6  1  0  0  0  0
  6  7  3  0  0  0  0
  5  8  1  0  0  0  0
  8  9  2  0  0  0  0
  8 10  1  0  0  0  0
 10 11  1  0  0  0  0
 11 12  4  0  0  0  0
 12 13  4  0  0  0  0
 13 14  4  0  0  0  0
 14 15  1  0  0  0  0
 15 16  4  0  0  0  0
 16 17  4  0  0  0  0
 17 18  4  0  0  0  0
 18 19  1  0  0  0  0
 18 20  4  0  0  0  0
 20 21  4  0  0  0  0
 15 21  4  0  0  0  0
 21 22  1  0  0  0  0
 14 23  4  0  0  0  0
 23 24  1  0  0  0  0
 24 25  2  0  0  0  0
 24 26  1  0  0  0  0
 26 27  1  0  0  0  0
 23 28  4  0  0  0  0
 11 28  4  0  0  0  0
M  END
> <IC50(uM)>
0.049

> <Outcome>
1.0

> <BindingDB ID>
50707378

> <BindingDB MonomerID>
50359699

> <BindingDB Ligand Name>
CHEMBL1929443

> <Curation/DataSource>
ChEMBL

> <Article DOI>
10.1016/j.bmcl.2011.10.052

> <PMID>
22078215

> <Patent Number>
?

> <Authors>
Erra, M; Moreno, I; Sanahuja, J; Andres, M; Reinoso, RF; Lozoya, E; Pizcueta, P; Godessart, N; Castro-Palomino, JC

> <Link to Ligand in BindingDB>
http://www.bindingdb.org/bind/chemsearch/marvin/MolStructure.jsp?monomerid=50359699

> <Link to Ligand-Target Pair in BindingDB>
http://www.bindingdb.org/jsp/dbsearch/PrimarySearch_ki.jsp?energyterm=kJ/mole&tag=r21&monomerid=50359699&enzyme=Dihydroorotate+dehydrogenase&column=ki&startPg=0&Increment=50&submit=Search

> <PubChem CID>
91930447

> <PubChem SID>
136963723

$$$$

  Mrv2115 07222212352D          

 32 36  0  0  0  0            999 V2000
   -0.1712   -0.6979    0.0000 C   0  0  0  0  0  0  0  0  0  0  0  0
    0.6538   -0.6979    0.0000 C   0  0  0  0  0  0  0  0  0  0  0  0
    1.1387   -0.0305    0.0000 N   0  0  0  0  0  0  0  0  0  0  0  0
    1.9233   -0.2854    0.0000 C   0  0  0  0  0  0  0  0  0  0  0  0
    2.6378    0.1271    0.0000 C   0  0  0  0  0  0  0  0  0  0  0  0
    2.6378    0.9521    0.0000 C   0  0  0  0  0  0  0  0  0  0  0  0
    3.3523    1.3646    0.0000 O   0  0  0  0  0  0  0  0  0  0  0  0
    1.9233    1.3646    0.0000 O   0  0  0  0  0  0  0  0  0  0  0  0
    3.3523   -0.2854    0.0000 C   0  0  0  0  0  0  0  0  0  0  0  0
    3.3523   -1.1104    0.0000 C   0  0  0  0  0  0  0  0  0  0  0  0
    4.0668   -1.5229    0.0000 C   0  0  0  0  0  0  0  0  0  0  0  0
    4.7812   -1.1104    0.0000 C   0  0  0  0  0  0  0  0  0  0  0  0
    5.4957   -1.5229    0.0000 C   0  0  0  0  0  0  0  0  0  0  0  0
    5.4957   -2.3479    0.0000 C   0  0  0  0  0  0  0  0  0  0  0  0
    6.2102   -2.7604    0.0000 C   0  0  0  0  0  0  0  0  0  0  0  0
    6.9246   -2.3479    0.0000 C   0  0  0  0  0  0  0  0  0  0  0  0
    6.9246   -1.5229    0.0000 F   0  0  0  0  0  0  0  0  0  0  0  0
    7.6391   -2.7604    0.0000 C   0  0  0  0  0  0  0  0  0  0  0  0
    7.6391   -3.5854    0.0000 C   0  0  0  0  0  0  0  0  0  0  0  0
    6.9246   -3.9979    0.0000 C   0  0  0  0  0  0  0  0  0  0  0  0
    6.2102   -3.5854    0.0000 C   0  0  0  0  0  0  0  0  0  0  0  0
    5.4957   -3.9979    0.0000 C   0  0  0  0  0  0  0  0  0  0  0  0
    5.4957   -4.8229    0.0000 N   0  0  0  0  0  0  0  0  0  0  0  0
    6.1631   -5.3079    0.0000 C   0  0  0  0  0  0  0  0  0  0  0  0
    5.9082   -6.0925    0.0000 C   0  0  0  0  0  0  0  0  0  0  0  0
    5.0832   -6.0925    0.0000 C   0  0  0  0  0  0  0  0  0  0  0  0
    4.8283   -5.3079    0.0000 C   0  0  0  0  0  0  0  0  0  0  0  0
    4.7812   -2.7604    0.0000 C   0  0  0  0  0  0  0  0  0  0  0  0
    4.0668   -2.3479    0.0000 C   0  0  0  0  0  0  0  0  0  0  0  0
    2.6378   -1.5229    0.0000 C   0  0  0  0  0  0  0  0  0  0  0  0
    1.9233   -1.1104    0.0000 C   0  0  0  0  0  0  0  0  0  0  0  0
    1.1387   -1.3654    0.0000 N   0  0  0  0  0  0  0  0  0  0  0  0
  1  2  1  0  0  0  0
  2  3  4  0  0  0  0
  3  4  4  0  0  0  0
  4  5  4  0  0  0  0
  5  6  1  0  0  0  0
  6  7  2  0  0  0  0
  6  8  1  0  0  0  0
  5  9  4  0  0  0  0
  9 10  4  0  0  0  0
 10 11  1  0  0  0  0
 11 12  4  0  0  0  0
 12 13  4  0  0  0  0
 13 14  4  0  0  0  0
 14 15  1  0  0  0  0
 15 16  4  0  0  0  0
 16 17  1  0  0  0  0
 16 18  4  0  0  0  0
 18 19  4  0  0  0  0
 19 20  4  0  0  0  0
 20 21  4  0  0  0  0
 15 21  4  0  0  0  0
 21 22  1  0  0  0  0
 22 23  1  0  0  0  0
 23 24  1  0  0  0  0
 24 25  1  0  0  0  0
 25 26  1  0  0  0  0
 26 27  1  0  0  0  0
 23 27  1  0  0  0  0
 14 28  4  0  0  0  0
 28 29  4  0  0  0  0
 11 29  4  0  0  0  0
 10 30  4  0  0  0  0
 30 31  4  0  0  0  0
  4 31  4  0  0  0  0
 31 32  4  0  0  0  0
  2 32  4  0  0  0  0
M  STY  1   1 DAT
M  SAL   1  1  32
M  SDT   1 MRV_IMPLICIT_H                                        
M  SDD   1     0.5304   -0.4125    DR    ALL  0       0  
M  SED   1 IMPL_H1
M  END
> <IC50(uM)>
0.0055

> <Outcome>
1.0

> <BindingDB ID>
1045616

> <BindingDB MonomerID>
501674

> <BindingDB Ligand Name>
US11028054, Example 150

> <Curation/DataSource>
US Patent

> <Article DOI>
?

> <PMID>
?

> <Patent Number>
US11028054

> <Authors>
Thunuguntla, SS; Hosahalli, S; Panigrahi, SK; Schwarz, M; Arit, M

> <Link to Ligand in BindingDB>
http://www.bindingdb.org/bind/chemsearch/marvin/MolStructure.jsp?monomerid=501674

> <Link to Ligand-Target Pair in BindingDB>
http://www.bindingdb.org/jsp/dbsearch/PrimarySearch_ki.jsp?energyterm=kJ/mole&tag=r21&monomerid=501674&enzyme=Dihydroorotate+dehydrogenase&column=ki&startPg=0&Increment=50&submit=Search

> <PubChem CID>
?

> <PubChem SID>
?

$$$$

  Mrv2115 07222212352D          

 37 41  0  0  0  0            999 V2000
   -1.8659    1.4455    0.0000 C   0  0  0  0  0  0  0  0  0  0  0  0
   -2.6909    1.4455    0.0000 C   0  0  0  0  0  0  0  0  0  0  0  0
   -3.1034    0.7310    0.0000 O   0  0  0  0  0  0  0  0  0  0  0  0
   -2.6909    0.0165    0.0000 C   0  0  0  0  0  0  0  0  0  0  0  0
   -1.8659    0.0165    0.0000 C   0  0  0  0  0  0  0  0  0  0  0  0
   -1.4534   -0.6979    0.0000 C   0  0  0  0  0  0  0  0  0  0  0  0
   -0.6284   -0.6979    0.0000 N   0  0  0  0  0  0  0  0  0  0  0  0
   -0.1435   -1.3654    0.0000 N   0  0  0  0  0  0  0  0  0  0  0  0
    0.6411   -1.1104    0.0000 C   0  0  0  0  0  0  0  0  0  0  0  0
    0.6411   -0.2854    0.0000 N   0  0  0  0  0  0  0  0  0  0  0  0
   -0.1435   -0.0305    0.0000 C   0  0  0  0  0  0  0  0  0  0  0  0
   -0.3984    0.7541    0.0000 O   0  0  0  0  0  0  0  0  0  0  0  0
    1.3556    0.1271    0.0000 C   0  0  0  0  0  0  0  0  0  0  0  0
    2.0701   -0.2854    0.0000 C   0  0  0  0  0  0  0  0  0  0  0  0
    2.0701   -1.1104    0.0000 C   0  0  0  0  0  0  0  0  0  0  0  0
    1.3556   -1.5229    0.0000 C   0  0  0  0  0  0  0  0  0  0  0  0
   -1.8659   -1.4124    0.0000 C   0  0  0  0  0  0  0  0  0  0  0  0
   -1.4534   -2.1269    0.0000 Cl  0  0  0  0  0  0  0  0  0  0  0  0
   -2.6909   -1.4124    0.0000 C   0  0  0  0  0  0  0  0  0  0  0  0
   -3.1034   -0.6979    0.0000 C   0  0  0  0  0  0  0  0  0  0  0  0
   -3.9284   -0.6979    0.0000 C   0  0  0  0  0  0  0  0  0  0  0  0
   -4.3409    0.0165    0.0000 O   0  0  0  0  0  0  0  0  0  0  0  0
   -4.3409   -1.4124    0.0000 N   0  0  0  0  0  0  0  0  0  0  0  0
   -5.1659   -1.4124    0.0000 C   0  0  0  0  0  0  0  0  0  0  0  0
   -5.3092   -2.2249    0.0000 C   0  0  0  0  0  0  0  0  0  0  0  0
   -4.6772   -2.7552    0.0000 C   0  0  0  0  0  0  0  0  0  0  0  0
   -4.8205   -3.5676    0.0000 C   0  0  0  0  0  0  0  0  0  0  0  0
   -5.5957   -3.8498    0.0000 C   0  0  0  0  0  0  0  0  0  0  0  0
   -5.7390   -4.6623    0.0000 F   0  0  0  0  0  0  0  0  0  0  0  0
   -6.2277   -3.3195    0.0000 C   0  0  0  0  0  0  0  0  0  0  0  0
   -6.0844   -2.5070    0.0000 C   0  0  0  0  0  0  0  0  0  0  0  0
   -5.3092   -0.5999    0.0000 C   0  0  0  0  0  0  0  0  0  0  0  0
   -5.9412   -1.1302    0.0000 C   0  0  0  0  0  0  0  0  0  0  0  0
   -3.1034    2.1599    0.0000 C   0  0  0  0  0  0  0  0  0  0  0  0
   -2.3890    2.5724    0.0000 F   0  0  0  0  0  0  0  0  0  0  0  0
   -3.8179    1.7474    0.0000 F   0  0  0  0  0  0  0  0  0  0  0  0
   -3.5159    2.8744    0.0000 F   0  0  0  0  0  0  0  0  0  0  0  0
  1  2  1  0  0  0  0
  2  3  1  0  0  0  0
  3  4  1  0  0  0  0
  4  5  4  0  0  0  0
  5  6  4  0  0  0  0
  6  7  1  0  0  0  0
  7  8  4  0  0  0  0
  8  9  4  0  0  0  0
  9 10  4  0  0  0  0
 10 11  4  0  0  0  0
  7 11  4  0  0  0  0
 11 12  2  0  0  0  0
 10 13  1  0  0  0  0
 13 14  1  0  0  0  0
 14 15  1  0  0  0  0
 15 16  1  0  0  0  0
  9 16  1  0  0  0  0
  6 17  4  0  0  0  0
 17 18  1  0  0  0  0
 17 19  4  0  0  0  0
 19 20  4  0  0  0  0
  4 20  4  0  0  0  0
 20 21  1  0  0  0  0
 21 22  2  0  0  0  0
 21 23  1  0  0  0  0
 23 24  1  0  0  0  0
 24 25  1  0  0  0  0
 25 26  4  0  0  0  0
 26 27  4  0  0  0  0
 27 28  4  0  0  0  0
 28 29  1  0  0  0  0
 28 30  4  0  0  0  0
 30 31  4  0  0  0  0
 25 31  4  0  0  0  0
 24 32  1  0  0  0  0
 32 33  1  0  0  0  0
 24 33  1  0  0  0  0
  2 34  1  0  0  0  0
 34 35  1  0  0  0  0
 34 36  1  0  0  0  0
 34 37  1  0  0  0  0
M  END
> <IC50(uM)>
0.5

> <Outcome>
1.0

> <BindingDB ID>
1020689

> <BindingDB MonomerID>
490615

> <BindingDB Ligand Name>
5-chloro-N-[1-(4-fluorophenyl)cyclopropyl]-4-(3-oxo-5,6,7,8-tetrahydro[1,2,4]triazolo[4,3-a]-pyridin-2(3H)-yl)-2-{[(2S)-1,1,1-trifluoropropan-2-yl]oxy}benzamide::US10968216, Example 283

> <Curation/DataSource>
US Patent

> <Article DOI>
?

> <PMID>
?

> <Patent Number>
US10968216

> <Authors>
Gradl, SN; Nguyen, D; Eis, K; Gunther, J; Stellfeld, T; Janzer, A; Christian, S; Mueller, T; Sheikh, SE; Zhou, HJ; Zhao, C; Sykes, DB; Ferrara, SJ; Liu, K; Herbert, SA; Merz, C; Niehues, M; Nising, CF; Schafer, M; Zimmermann, K; Knablein, J; Thede, K; Faupel, T

> <Link to Ligand in BindingDB>
http://www.bindingdb.org/bind/chemsearch/marvin/MolStructure.jsp?monomerid=490615

> <Link to Ligand-Target Pair in BindingDB>
http://www.bindingdb.org/jsp/dbsearch/PrimarySearch_ki.jsp?energyterm=kJ/mole&tag=r21&monomerid=490615&enzyme=Dihydroorotate+dehydrogenase&column=ki&startPg=0&Increment=50&submit=Search

> <PubChem CID>
134474445

> <PubChem SID>
447117341

$$$$

  Mrv2115 07222212352D          

 23 26  0  0  0  0            999 V2000
   -1.6236   -1.8980    0.0000 O   0  0  0  0  0  0  0  0  0  0  0  0
   -1.4521   -2.7050    0.0000 C   0  0  0  0  0  0  0  0  0  0  0  0
   -2.0652   -3.2570    0.0000 N   0  0  0  0  0  0  0  0  0  0  0  0
   -1.8936   -4.0640    0.0000 C   0  0  0  0  0  0  0  0  0  0  0  0
   -1.3416   -4.6771    0.0000 C   0  0  0  0  0  0  0  0  0  0  0  0
   -2.1486   -4.8486    0.0000 C   0  0  0  0  0  0  0  0  0  0  0  0
   -0.6674   -2.9599    0.0000 C   0  0  0  0  0  0  0  0  0  0  0  0
   -0.4125   -3.7445    0.0000 C   0  0  0  0  0  0  0  0  0  0  0  0
   -0.8974   -4.4120    0.0000 O   0  0  0  0  0  0  0  0  0  0  0  0
    0.4125   -3.7445    0.0000 C   0  0  0  0  0  0  0  0  0  0  0  0
    0.6674   -2.9599    0.0000 S   0  0  0  0  0  0  0  0  0  0  0  0
    0.0000   -2.4750    0.0000 C   0  0  0  0  0  0  0  0  0  0  0  0
    0.0000   -1.6500    0.0000 N   0  0  0  0  0  0  0  0  0  0  0  0
    0.7145   -1.2375    0.0000 C   0  0  0  0  0  0  0  0  0  0  0  0
    0.7145   -0.4125    0.0000 C   0  0  0  0  0  0  0  0  0  0  0  0
    1.4289    0.0000    0.0000 C   0  0  0  0  0  0  0  0  0  0  0  0
    2.1434   -0.4125    0.0000 C   0  0  0  0  0  0  0  0  0  0  0  0
    2.8579    0.0000    0.0000 C   0  0  0  0  0  0  0  0  0  0  0  0
    3.5724   -0.4125    0.0000 C   0  0  0  0  0  0  0  0  0  0  0  0
    3.5724   -1.2375    0.0000 C   0  0  0  0  0  0  0  0  0  0  0  0
    2.8579   -1.6500    0.0000 C   0  0  0  0  0  0  0  0  0  0  0  0
    2.1434   -1.2375    0.0000 C   0  0  0  0  0  0  0  0  0  0  0  0
    1.4289   -1.6500    0.0000 C   0  0  0  0  0  0  0  0  0  0  0  0
  1  2  2  0  0  0  0
  2  3  1  0  0  0  0
  3  4  1  0  0  0  0
  4  5  1  0  0  0  0
  5  6  1  0  0  0  0
  4  6  1  0  0  0  0
  2  7  1  0  0  0  0
  7  8  4  0  0  0  0
  8  9  1  0  0  0  0
  8 10  4  0  0  0  0
 10 11  4  0  0  0  0
 11 12  4  0  0  0  0
  7 12  4  0  0  0  0
 12 13  1  0  0  0  0
 13 14  1  0  0  0  0
 14 15  4  0  0  0  0
 15 16  4  0  0  0  0
 16 17  4  0  0  0  0
 17 18  4  0  0  0  0
 18 19  4  0  0  0  0
 19 20  4  0  0  0  0
 20 21  4  0  0  0  0
 21 22  4  0  0  0  0
 17 22  4  0  0  0  0
 22 23  4  0  0  0  0
 14 23  4  0  0  0  0
M  END
> <IC50(uM)>
50.0

> <Outcome>
0.0

> <BindingDB ID>
51079147

> <BindingDB MonomerID>
50441255

> <BindingDB Ligand Name>
CHEMBL2431494

> <Curation/DataSource>
ChEMBL

> <Article DOI>
10.1021/jm400938g

> <PMID>
24073986

> <Patent Number>
?

> <Authors>
Xu, M; Zhu, J; Diao, Y; Zhou, H; Ren, X; Sun, D; Huang, J; Han, D; Zhao, Z; Zhu, L; Xu, Y; Li, H

> <Link to Ligand in BindingDB>
http://www.bindingdb.org/bind/chemsearch/marvin/MolStructure.jsp?monomerid=50441255

> <Link to Ligand-Target Pair in BindingDB>
http://www.bindingdb.org/jsp/dbsearch/PrimarySearch_ki.jsp?energyterm=kJ/mole&tag=r21&monomerid=50441255&enzyme=Dihydroorotate+dehydrogenase&column=ki&startPg=0&Increment=50&submit=Search

> <PubChem CID>
91898816

> <PubChem SID>
175453572

$$$$

  Mrv2115 07222212352D          

 26 29  0  0  0  0            999 V2000
    3.9934    2.4750    0.0000 O   0  0  0  0  0  0  0  0  0  0  0  0
    3.2789    2.0625    0.0000 C   0  0  0  0  0  0  0  0  0  0  0  0
    2.5645    2.4750    0.0000 O   0  0  0  0  0  0  0  0  0  0  0  0
    3.2789    1.2375    0.0000 C   0  0  0  0  0  0  0  0  0  0  0  0
    3.9934    0.8250    0.0000 C   0  0  0  0  0  0  0  0  0  0  0  0
    3.9934    0.0000    0.0000 C   0  0  0  0  0  0  0  0  0  0  0  0
    4.7079   -0.4125    0.0000 Cl  0  0  0  0  0  0  0  0  0  0  0  0
    3.2789   -0.4125    0.0000 C   0  0  0  0  0  0  0  0  0  0  0  0
    2.5645    0.0000    0.0000 C   0  0  0  0  0  0  0  0  0  0  0  0
    1.7798   -0.2549    0.0000 N   0  0  0  0  0  0  0  0  0  0  0  0
    1.2949    0.4125    0.0000 C   0  0  0  0  0  0  0  0  0  0  0  0
    0.4699    0.4125    0.0000 C   0  0  0  0  0  0  0  0  0  0  0  0
    0.0574   -0.3020    0.0000 C   0  0  0  0  0  0  0  0  0  0  0  0
   -0.7676   -0.3020    0.0000 C   0  0  0  0  0  0  0  0  0  0  0  0
   -1.1801    0.4125    0.0000 C   0  0  0  0  0  0  0  0  0  0  0  0
   -2.0051    0.4125    0.0000 C   0  0  0  0  0  0  0  0  0  0  0  0
   -2.4176   -0.3020    0.0000 C   0  0  0  0  0  0  0  0  0  0  0  0
   -3.2426   -0.3020    0.0000 C   0  0  0  0  0  0  0  0  0  0  0  0
   -3.6551    0.4125    0.0000 C   0  0  0  0  0  0  0  0  0  0  0  0
   -3.2426    1.1270    0.0000 C   0  0  0  0  0  0  0  0  0  0  0  0
   -2.4176    1.1270    0.0000 C   0  0  0  0  0  0  0  0  0  0  0  0
   -0.7676    1.1270    0.0000 C   0  0  0  0  0  0  0  0  0  0  0  0
    0.0574    1.1270    0.0000 C   0  0  0  0  0  0  0  0  0  0  0  0
    0.4699    1.8414    0.0000 F   0  0  0  0  0  0  0  0  0  0  0  0
    1.7798    1.0799    0.0000 N   0  0  0  0  0  0  0  0  0  0  0  0
    2.5645    0.8250    0.0000 C   0  0  0  0  0  0  0  0  0  0  0  0
  1  2  2  0  0  0  0
  2  3  1  0  0  0  0
  2  4  1  0  0  0  0
  4  5  4  0  0  0  0
  5  6  4  0  0  0  0
  6  7  1  0  0  0  0
  6  8  4  0  0  0  0
  8  9  4  0  0  0  0
  9 10  4  0  0  0  0
 10 11  4  0  0  0  0
 11 12  1  0  0  0  0
 12 13  4  0  0  0  0
 13 14  4  0  0  0  0
 14 15  4  0  0  0  0
 15 16  1  0  0  0  0
 16 17  4  0  0  0  0
 17 18  4  0  0  0  0
 18 19  4  0  0  0  0
 19 20  4  0  0  0  0
 20 21  4  0  0  0  0
 16 21  4  0  0  0  0
 15 22  4  0  0  0  0
 22 23  4  0  0  0  0
 12 23  4  0  0  0  0
 23 24  1  0  0  0  0
 11 25  4  0  0  0  0
 25 26  4  0  0  0  0
  4 26  4  0  0  0  0
  9 26  4  0  0  0  0
M  STY  1   1 DAT
M  SAL   1  1  10
M  SDT   1 MRV_IMPLICIT_H                                        
M  SDD   1     0.5304   -0.4125    DR    ALL  0       0  
M  SED   1 IMPL_H1
M  END
> <IC50(uM)>
0.659

> <Outcome>
1.0

> <BindingDB ID>
297766

> <BindingDB MonomerID>
155422

> <BindingDB Ligand Name>
US9006454, I44

> <Curation/DataSource>
US Patent

> <Article DOI>
?

> <PMID>
?

> <Patent Number>
US9006454

> <Authors>
Thunuguntla, SS; Subramanya, H; Kunnam, SR; Sanivaru Vijay, SR; Bingi, C; Kusanur, R; Schwarz, M; Arlt, M

> <Link to Ligand in BindingDB>
http://www.bindingdb.org/bind/chemsearch/marvin/MolStructure.jsp?monomerid=155422

> <Link to Ligand-Target Pair in BindingDB>
http://www.bindingdb.org/jsp/dbsearch/PrimarySearch_ki.jsp?energyterm=kJ/mole&tag=r21&monomerid=155422&enzyme=Dihydroorotate+dehydrogenase&column=ki&startPg=0&Increment=50&submit=Search

> <PubChem CID>
46946580

> <PubChem SID>
253658359

$$$$

  Mrv2115 07222212352D          

 36 39  0  0  0  0            999 V2000
    6.8486   -4.3585    0.0000 C   0  0  0  0  0  0  0  0  0  0  0  0
    6.0281   -4.2723    0.0000 C   0  0  0  0  0  0  0  0  0  0  0  0
    5.6926   -3.5186    0.0000 O   0  0  0  0  0  0  0  0  0  0  0  0
    4.8721   -3.4324    0.0000 C   0  0  0  0  0  0  0  0  0  0  0  0
    4.3872   -4.0998    0.0000 C   0  0  0  0  0  0  0  0  0  0  0  0
    3.5667   -4.0136    0.0000 C   0  0  0  0  0  0  0  0  0  0  0  0
    3.0818   -4.6810    0.0000 N   0  0  0  0  0  0  0  0  0  0  0  0
    3.3367   -5.4656    0.0000 N   0  0  0  0  0  0  0  0  0  0  0  0
    2.6693   -5.9506    0.0000 C   0  0  0  0  0  0  0  0  0  0  0  0
    2.6693   -6.7756    0.0000 C   0  0  0  0  0  0  0  0  0  0  0  0
    3.2526   -7.3589    0.0000 C   0  0  0  0  0  0  0  0  0  0  0  0
    2.6693   -7.9423    0.0000 C   0  0  0  0  0  0  0  0  0  0  0  0
    2.0859   -7.3589    0.0000 C   0  0  0  0  0  0  0  0  0  0  0  0
    2.0018   -5.4656    0.0000 N   0  0  0  0  0  0  0  0  0  0  0  0
    1.2172   -5.7206    0.0000 C   0  0  0  0  0  0  0  0  0  0  0  0
    2.2568   -4.6810    0.0000 C   0  0  0  0  0  0  0  0  0  0  0  0
    1.7718   -4.0136    0.0000 O   0  0  0  0  0  0  0  0  0  0  0  0
    3.2311   -3.2599    0.0000 C   0  0  0  0  0  0  0  0  0  0  0  0
    2.4106   -3.1737    0.0000 F   0  0  0  0  0  0  0  0  0  0  0  0
    3.7160   -2.5925    0.0000 C   0  0  0  0  0  0  0  0  0  0  0  0
    4.5365   -2.6787    0.0000 C   0  0  0  0  0  0  0  0  0  0  0  0
    5.0214   -2.0113    0.0000 C   0  0  0  0  0  0  0  0  0  0  0  0
    5.8419   -2.0975    0.0000 O   0  0  0  0  0  0  0  0  0  0  0  0
    4.6859   -1.2576    0.0000 N   0  0  0  0  0  0  0  0  0  0  0  0
    5.1708   -0.5902    0.0000 C   0  0  0  0  0  0  0  0  0  0  0  0
    4.8353    0.1635    0.0000 C   0  0  0  0  0  0  0  0  0  0  0  0
    4.0148    0.2498    0.0000 F   0  0  0  0  0  0  0  0  0  0  0  0
    5.3202    0.8310    0.0000 C   0  0  0  0  0  0  0  0  0  0  0  0
    6.1407    0.7447    0.0000 C   0  0  0  0  0  0  0  0  0  0  0  0
    6.4762   -0.0090    0.0000 C   0  0  0  0  0  0  0  0  0  0  0  0
    5.9913   -0.6764    0.0000 C   0  0  0  0  0  0  0  0  0  0  0  0
    6.3269   -1.4301    0.0000 F   0  0  0  0  0  0  0  0  0  0  0  0
    5.5432   -4.9397    0.0000 C   0  0  0  0  0  0  0  0  0  0  0  0
    4.8758   -4.4548    0.0000 F   0  0  0  0  0  0  0  0  0  0  0  0
    6.2106   -5.4247    0.0000 F   0  0  0  0  0  0  0  0  0  0  0  0
    5.0583   -5.6072    0.0000 F   0  0  0  0  0  0  0  0  0  0  0  0
  1  2  1  0  0  0  0
  2  3  1  0  0  0  0
  3  4  1  0  0  0  0
  4  5  4  0  0  0  0
  5  6  4  0  0  0  0
  6  7  1  0  0  0  0
  7  8  4  0  0  0  0
  8  9  4  0  0  0  0
  9 10  1  0  0  0  0
 10 11  1  0  0  0  0
 11 12  1  0  0  0  0
 12 13  1  0  0  0  0
 10 13  1  0  0  0  0
  9 14  4  0  0  0  0
 14 15  1  0  0  0  0
 14 16  4  0  0  0  0
  7 16  4  0  0  0  0
 16 17  2  0  0  0  0
  6 18  4  0  0  0  0
 18 19  1  0  0  0  0
 18 20  4  0  0  0  0
 20 21  4  0  0  0  0
  4 21  4  0  0  0  0
 21 22  1  0  0  0  0
 22 23  2  0  0  0  0
 22 24  1  0  0  0  0
 24 25  1  0  0  0  0
 25 26  4  0  0  0  0
 26 27  1  0  0  0  0
 26 28  4  0  0  0  0
 28 29  4  0  0  0  0
 29 30  4  0  0  0  0
 30 31  4  0  0  0  0
 25 31  4  0  0  0  0
 31 32  1  0  0  0  0
  2 33  1  0  0  0  0
 33 34  1  0  0  0  0
 33 35  1  0  0  0  0
 33 36  1  0  0  0  0
M  END
> <IC50(uM)>
0.05

> <Outcome>
1.0

> <BindingDB ID>
972516; 1098670

> <BindingDB MonomerID>
470391

> <BindingDB Ligand Name>
4-(3-cyclobutyl-4-methyl-5-oxo-4,5-dihydro-1H-1,2,4-triazol-1-yl)-N-(2,6-difluorophenyl)-5-fluoro-2-{[(2S)-1,1,1-trifluoropropan-2-yl]oxy}benzamide::US10815215, Example 50; 4-(3-cyclobutyl-4-methyl-5-oxo-4,5-dihydro-1H-1,2,4-triazol-1-yl)-N-(2,6-difluorophenyl)-5-fluoro-2-{[(2S)-1,1,1-trifluoropropan-2-yl]oxy}benzamide::US10815215, Example 50::US11130745, Example 50

> <Curation/DataSource>
US Patent

> <Article DOI>
?

> <PMID>
?

> <Patent Number>
US10815215; US11130745

> <Authors>
Gradl, SN; Nguyen, D; Eis, K; Gunther, J; Stellfeld, T; Janzer, A; Christian, S; Muller, T; Sheikh, SE; Zhou, HJ; Zhao, C; Sykes, DB; Ferrara, SJ; Liu, K; Krober, M; Merz, C; Niehues, M; Schafer, M; Zimmermann, K; Nising, CF; Gradl, SN; Nguyen, D; Eis, K; Gunther, J; Stellfeld, T; Janzer, A; Christian, S; Muller, T; Sheikh, SE; Sykes, DB; Ferrara, SJ; Krober, M; Merz, C; Niehues, M; Schafer, M; Zimmermann, K; Nising, CF

> <Link to Ligand in BindingDB>
http://www.bindingdb.org/bind/chemsearch/marvin/MolStructure.jsp?monomerid=470391

> <Link to Ligand-Target Pair in BindingDB>
http://www.bindingdb.org/jsp/dbsearch/PrimarySearch_ki.jsp?energyterm=kJ/mole&tag=r21&monomerid=470391&enzyme=Dihydroorotate+dehydrogenase&column=ki&startPg=0&Increment=50&submit=Search

> <PubChem CID>
134470362

> <PubChem SID>
441609568

$$$$

  Mrv2115 07222212352D          

 33 36  0  0  0  0            999 V2000
   -0.6284    2.1599    0.0000 C   0  0  0  0  0  0  0  0  0  0  0  0
   -1.4534    2.1599    0.0000 C   0  0  0  0  0  0  0  0  0  0  0  0
   -1.8659    1.4455    0.0000 C   0  0  0  0  0  0  0  0  0  0  0  0
   -2.6909    1.4455    0.0000 C   0  0  0  0  0  0  0  0  0  0  0  0
   -3.1034    2.1599    0.0000 C   0  0  0  0  0  0  0  0  0  0  0  0
   -3.1034    0.7310    0.0000 O   0  0  0  0  0  0  0  0  0  0  0  0
   -2.6909    0.0165    0.0000 C   0  0  0  0  0  0  0  0  0  0  0  0
   -1.8659    0.0165    0.0000 C   0  0  0  0  0  0  0  0  0  0  0  0
   -1.4534   -0.6979    0.0000 C   0  0  0  0  0  0  0  0  0  0  0  0
   -0.6284   -0.6979    0.0000 N   0  0  0  0  0  0  0  0  0  0  0  0
   -0.1435   -1.3654    0.0000 N   0  0  0  0  0  0  0  0  0  0  0  0
    0.6411   -1.1104    0.0000 C   0  0  0  0  0  0  0  0  0  0  0  0
    0.6411   -0.2854    0.0000 N   0  0  0  0  0  0  0  0  0  0  0  0
   -0.1435   -0.0305    0.0000 C   0  0  0  0  0  0  0  0  0  0  0  0
   -0.3984    0.7541    0.0000 O   0  0  0  0  0  0  0  0  0  0  0  0
    1.3556    0.1271    0.0000 C   0  0  0  0  0  0  0  0  0  0  0  0
    2.0701   -0.2854    0.0000 C   0  0  0  0  0  0  0  0  0  0  0  0
    2.0701   -1.1104    0.0000 C   0  0  0  0  0  0  0  0  0  0  0  0
    1.3556   -1.5229    0.0000 C   0  0  0  0  0  0  0  0  0  0  0  0
   -1.8659   -1.4124    0.0000 C   0  0  0  0  0  0  0  0  0  0  0  0
   -1.4534   -2.1269    0.0000 F   0  0  0  0  0  0  0  0  0  0  0  0
   -2.6909   -1.4124    0.0000 C   0  0  0  0  0  0  0  0  0  0  0  0
   -3.1034   -0.6979    0.0000 C   0  0  0  0  0  0  0  0  0  0  0  0
   -3.9284   -0.6979    0.0000 C   0  0  0  0  0  0  0  0  0  0  0  0
   -4.3409    0.0165    0.0000 O   0  0  0  0  0  0  0  0  0  0  0  0
   -4.3409   -1.4124    0.0000 N   0  0  0  0  0  0  0  0  0  0  0  0
   -3.9284   -2.1269    0.0000 C   0  0  0  0  0  0  0  0  0  0  0  0
   -3.1034   -2.1269    0.0000 C   0  0  0  0  0  0  0  0  0  0  0  0
   -2.6909   -2.8414    0.0000 C   0  0  0  0  0  0  0  0  0  0  0  0
   -3.1034   -3.5558    0.0000 C   0  0  0  0  0  0  0  0  0  0  0  0
   -3.9284   -3.5558    0.0000 C   0  0  0  0  0  0  0  0  0  0  0  0
   -4.3409   -2.8414    0.0000 C   0  0  0  0  0  0  0  0  0  0  0  0
   -5.1659   -2.8414    0.0000 N   0  0  0  0  0  0  0  0  0  0  0  0
  1  2  1  0  0  0  0
  2  3  1  0  0  0  0
  3  4  1  0  0  0  0
  4  5  1  0  0  0  0
  4  6  1  0  0  0  0
  6  7  1  0  0  0  0
  7  8  4  0  0  0  0
  8  9  4  0  0  0  0
  9 10  1  0  0  0  0
 10 11  4  0  0  0  0
 11 12  4  0  0  0  0
 12 13  4  0  0  0  0
 13 14  4  0  0  0  0
 10 14  4  0  0  0  0
 14 15  2  0  0  0  0
 13 16  1  0  0  0  0
 16 17  1  0  0  0  0
 17 18  1  0  0  0  0
 18 19  1  0  0  0  0
 12 19  1  0  0  0  0
  9 20  4  0  0  0  0
 20 21  1  0  0  0  0
 20 22  4  0  0  0  0
 22 23  4  0  0  0  0
  7 23  4  0  0  0  0
 23 24  1  0  0  0  0
 24 25  2  0  0  0  0
 24 26  1  0  0  0  0
 26 27  1  0  0  0  0
 27 28  4  0  0  0  0
 28 29  4  0  0  0  0
 29 30  4  0  0  0  0
 30 31  4  0  0  0  0
 31 32  4  0  0  0  0
 27 32  4  0  0  0  0
 32 33  1  0  0  0  0
M  END
> <IC50(uM)>
0.0578

> <Outcome>
1.0

> <BindingDB ID>
1020400

> <BindingDB MonomerID>
490356

> <BindingDB Ligand Name>
N-(2-aminophenyl)-5-fluoro-4-(3-oxo-5,6,7,8-tetrahydro[1,2,4]triazolo[4,3-a]pyridin-2(3H)-yl)-2-[(2S)-pentan-2-yloxy]benzamide::US10968216, Example 24

> <Curation/DataSource>
US Patent

> <Article DOI>
?

> <PMID>
?

> <Patent Number>
US10968216

> <Authors>
Gradl, SN; Nguyen, D; Eis, K; Gunther, J; Stellfeld, T; Janzer, A; Christian, S; Mueller, T; Sheikh, SE; Zhou, HJ; Zhao, C; Sykes, DB; Ferrara, SJ; Liu, K; Herbert, SA; Merz, C; Niehues, M; Nising, CF; Schafer, M; Zimmermann, K; Knablein, J; Thede, K; Faupel, T

> <Link to Ligand in BindingDB>
http://www.bindingdb.org/bind/chemsearch/marvin/MolStructure.jsp?monomerid=490356

> <Link to Ligand-Target Pair in BindingDB>
http://www.bindingdb.org/jsp/dbsearch/PrimarySearch_ki.jsp?energyterm=kJ/mole&tag=r21&monomerid=490356&enzyme=Dihydroorotate+dehydrogenase&column=ki&startPg=0&Increment=50&submit=Search

> <PubChem CID>
134473915

> <PubChem SID>
447117083

$$$$

  Mrv2115 07222212352D          

 35 38  0  0  0  0            999 V2000
    2.3167   -5.1890    0.0000 C   0  0  0  0  0  0  0  0  0  0  0  0
    1.7036   -5.7410    0.0000 C   0  0  0  0  0  0  0  0  0  0  0  0
    0.9190   -5.4861    0.0000 C   0  0  0  0  0  0  0  0  0  0  0  0
    0.6640   -4.7015    0.0000 N   0  0  0  0  0  0  0  0  0  0  0  0
   -0.1610   -4.7015    0.0000 N   0  0  0  0  0  0  0  0  0  0  0  0
   -0.6459   -4.0340    0.0000 C   0  0  0  0  0  0  0  0  0  0  0  0
   -1.4664   -4.1203    0.0000 C   0  0  0  0  0  0  0  0  0  0  0  0
   -1.9513   -3.4528    0.0000 C   0  0  0  0  0  0  0  0  0  0  0  0
   -2.7718   -3.5391    0.0000 O   0  0  0  0  0  0  0  0  0  0  0  0
   -3.1073   -4.2927    0.0000 C   0  0  0  0  0  0  0  0  0  0  0  0
   -2.6224   -4.9602    0.0000 C   0  0  0  0  0  0  0  0  0  0  0  0
   -3.9278   -4.3790    0.0000 C   0  0  0  0  0  0  0  0  0  0  0  0
   -4.0140   -3.5585    0.0000 F   0  0  0  0  0  0  0  0  0  0  0  0
   -3.8416   -5.1995    0.0000 F   0  0  0  0  0  0  0  0  0  0  0  0
   -4.7483   -4.4652    0.0000 F   0  0  0  0  0  0  0  0  0  0  0  0
   -1.6157   -2.6992    0.0000 C   0  0  0  0  0  0  0  0  0  0  0  0
   -2.1006   -2.0317    0.0000 C   0  0  0  0  0  0  0  0  0  0  0  0
   -1.7651   -1.2780    0.0000 O   0  0  0  0  0  0  0  0  0  0  0  0
   -2.9211   -2.1180    0.0000 N   0  0  0  0  0  0  0  0  0  0  0  0
   -3.4060   -1.4505    0.0000 C   0  0  0  0  0  0  0  0  0  0  0  0
   -4.2265   -1.5367    0.0000 C   0  0  0  0  0  0  0  0  0  0  0  0
   -4.7114   -0.8693    0.0000 C   0  0  0  0  0  0  0  0  0  0  0  0
   -4.3759   -0.1156    0.0000 C   0  0  0  0  0  0  0  0  0  0  0  0
   -3.5554   -0.0294    0.0000 C   0  0  0  0  0  0  0  0  0  0  0  0
   -3.0705   -0.6968    0.0000 C   0  0  0  0  0  0  0  0  0  0  0  0
   -2.2500   -0.6106    0.0000 F   0  0  0  0  0  0  0  0  0  0  0  0
   -0.7952   -2.6129    0.0000 C   0  0  0  0  0  0  0  0  0  0  0  0
   -0.3103   -3.2804    0.0000 C   0  0  0  0  0  0  0  0  0  0  0  0
    0.5102   -3.1941    0.0000 F   0  0  0  0  0  0  0  0  0  0  0  0
   -0.4159   -5.4861    0.0000 C   0  0  0  0  0  0  0  0  0  0  0  0
   -1.2005   -5.7410    0.0000 O   0  0  0  0  0  0  0  0  0  0  0  0
    0.2515   -5.9710    0.0000 N   0  0  0  0  0  0  0  0  0  0  0  0
    0.2515   -6.7960    0.0000 C   0  0  0  0  0  0  0  0  0  0  0  0
    0.6640   -7.5105    0.0000 C   0  0  0  0  0  0  0  0  0  0  0  0
   -0.1610   -7.5105    0.0000 C   0  0  0  0  0  0  0  0  0  0  0  0
  1  2  1  0  0  0  0
  2  3  1  0  0  0  0
  3  4  4  0  0  0  0
  4  5  4  0  0  0  0
  5  6  1  0  0  0  0
  6  7  4  0  0  0  0
  7  8  4  0  0  0  0
  8  9  1  0  0  0  0
  9 10  1  0  0  0  0
 10 11  1  0  0  0  0
 10 12  1  0  0  0  0
 12 13  1  0  0  0  0
 12 14  1  0  0  0  0
 12 15  1  0  0  0  0
  8 16  4  0  0  0  0
 16 17  1  0  0  0  0
 17 18  2  0  0  0  0
 17 19  1  0  0  0  0
 19 20  1  0  0  0  0
 20 21  4  0  0  0  0
 21 22  4  0  0  0  0
 22 23  4  0  0  0  0
 23 24  4  0  0  0  0
 24 25  4  0  0  0  0
 20 25  4  0  0  0  0
 25 26  1  0  0  0  0
 16 27  4  0  0  0  0
 27 28  4  0  0  0  0
  6 28  4  0  0  0  0
 28 29  1  0  0  0  0
  5 30  4  0  0  0  0
 30 31  2  0  0  0  0
 30 32  4  0  0  0  0
  3 32  4  0  0  0  0
 32 33  1  0  0  0  0
 33 34  1  0  0  0  0
 34 35  1  0  0  0  0
 33 35  1  0  0  0  0
M  END
> <IC50(uM)>
2.0

> <Outcome>
0.0

> <BindingDB ID>
1098684; 972530

> <BindingDB MonomerID>
470405

> <BindingDB Ligand Name>
4-(4-cyclopropyl-3-ethyl-5-oxo-4,5-dihydro-1H-1,2,4-triazol-1-yl)-5-fluoro-N-(2-fluorophenyl)-2-{[(2S)-1,1,1-trifluoropropan-2-yl]oxy}benzamide::US10815215, Example 64::US11130745, Example 64; 4-(4-cyclopropyl-3-ethyl-5-oxo-4,5-dihydro-1H-1,2,4-triazol-1-yl)-5-fluoro-N-(2-fluorophenyl)-2-{[(2S)-1,1,1-trifluoropropan-2-yl]oxy}benzamide::US10815215, Example 64

> <Curation/DataSource>
US Patent

> <Article DOI>
?

> <PMID>
?

> <Patent Number>
US11130745; US10815215

> <Authors>
Gradl, SN; Nguyen, D; Eis, K; Gunther, J; Stellfeld, T; Janzer, A; Christian, S; Muller, T; Sheikh, SE; Sykes, DB; Ferrara, SJ; Krober, M; Merz, C; Niehues, M; Schafer, M; Zimmermann, K; Nising, CF; Gradl, SN; Nguyen, D; Eis, K; Gunther, J; Stellfeld, T; Janzer, A; Christian, S; Muller, T; Sheikh, SE; Zhou, HJ; Zhao, C; Sykes, DB; Ferrara, SJ; Liu, K; Krober, M; Merz, C; Niehues, M; Schafer, M; Zimmermann, K; Nising, CF

> <Link to Ligand in BindingDB>
http://www.bindingdb.org/bind/chemsearch/marvin/MolStructure.jsp?monomerid=470405

> <Link to Ligand-Target Pair in BindingDB>
http://www.bindingdb.org/jsp/dbsearch/PrimarySearch_ki.jsp?energyterm=kJ/mole&tag=r21&monomerid=470405&enzyme=Dihydroorotate+dehydrogenase&column=ki&startPg=0&Increment=50&submit=Search

> <PubChem CID>
134469797

> <PubChem SID>
441609582

$$$$

  Mrv2115 07222212352D          

 26 29  0  0  0  0            999 V2000
    0.0000   -1.6500    0.0000 C   0  0  0  0  0  0  0  0  0  0  0  0
    0.7145   -1.2375    0.0000 C   0  0  0  0  0  0  0  0  0  0  0  0
    0.7145   -0.4125    0.0000 C   0  0  0  0  0  0  0  0  0  0  0  0
    0.0000    0.0000    0.0000 C   0  0  0  0  0  0  0  0  0  0  0  0
   -0.7145   -0.4125    0.0000 C   0  0  0  0  0  0  0  0  0  0  0  0
   -1.4289    0.0000    0.0000 C   0  0  0  0  0  0  0  0  0  0  0  0
   -1.4289    0.8250    0.0000 C   0  0  0  0  0  0  0  0  0  0  0  0
   -2.1434    1.2375    0.0000 C   0  0  0  0  0  0  0  0  0  0  0  0
   -2.8579    0.8250    0.0000 C   0  0  0  0  0  0  0  0  0  0  0  0
   -3.5724    1.2375    0.0000 C   0  0  0  0  0  0  0  0  0  0  0  0
   -3.5724    2.0625    0.0000 C   0  0  0  0  0  0  0  0  0  0  0  0
   -2.8579    2.4750    0.0000 C   0  0  0  0  0  0  0  0  0  0  0  0
   -2.1434    2.0625    0.0000 C   0  0  0  0  0  0  0  0  0  0  0  0
   -0.7145    1.2375    0.0000 C   0  0  0  0  0  0  0  0  0  0  0  0
    0.0000    0.8250    0.0000 C   0  0  0  0  0  0  0  0  0  0  0  0
    1.4289    0.0000    0.0000 N   0  0  0  0  0  0  0  0  0  0  0  0
    2.1434   -0.4125    0.0000 C   0  0  0  0  0  0  0  0  0  0  0  0
    2.8579    0.0000    0.0000 N   0  0  0  0  0  0  0  0  0  0  0  0
    3.5724   -0.4125    0.0000 C   0  0  0  0  0  0  0  0  0  0  0  0
    3.5724   -1.2375    0.0000 C   0  0  0  0  0  0  0  0  0  0  0  0
    2.8579   -1.6500    0.0000 C   0  0  0  0  0  0  0  0  0  0  0  0
    2.1434   -1.2375    0.0000 C   0  0  0  0  0  0  0  0  0  0  0  0
    1.4289   -1.6500    0.0000 C   0  0  0  0  0  0  0  0  0  0  0  0
    1.4289   -2.4750    0.0000 C   0  0  0  0  0  0  0  0  0  0  0  0
    0.7145   -2.8875    0.0000 O   0  0  0  0  0  0  0  0  0  0  0  0
    2.1434   -2.8875    0.0000 O   0  0  0  0  0  0  0  0  0  0  0  0
  1  2  1  0  0  0  0
  2  3  4  0  0  0  0
  3  4  1  0  0  0  0
  4  5  4  0  0  0  0
  5  6  4  0  0  0  0
  6  7  4  0  0  0  0
  7  8  1  0  0  0  0
  8  9  4  0  0  0  0
  9 10  4  0  0  0  0
 10 11  4  0  0  0  0
 11 12  4  0  0  0  0
 12 13  4  0  0  0  0
  8 13  4  0  0  0  0
  7 14  4  0  0  0  0
 14 15  4  0  0  0  0
  4 15  4  0  0  0  0
  3 16  4  0  0  0  0
 16 17  4  0  0  0  0
 17 18  4  0  0  0  0
 18 19  4  0  0  0  0
 19 20  4  0  0  0  0
 20 21  4  0  0  0  0
 21 22  4  0  0  0  0
 17 22  4  0  0  0  0
 22 23  4  0  0  0  0
  2 23  4  0  0  0  0
 23 24  1  0  0  0  0
 24 25  2  0  0  0  0
 24 26  1  0  0  0  0
M  END
> <IC50(uM)>
1.22

> <Outcome>
0.0

> <BindingDB ID>
51126173

> <BindingDB MonomerID>
50461860

> <BindingDB Ligand Name>
CHEMBL4228193

> <Curation/DataSource>
ChEMBL

> <Article DOI>
10.1021/acs.jmedchem.7b01862

> <PMID>
29727569

> <Patent Number>
?

> <Authors>
Madak, JT; Cuthbertson, CR; Miyata, Y; Tamura, S; Petrunak, EM; Stuckey, JA; Han, Y; He, M; Sun, D; Showalter, HD; Neamati, N

> <Link to Ligand in BindingDB>
http://www.bindingdb.org/bind/chemsearch/marvin/MolStructure.jsp?monomerid=50461860

> <Link to Ligand-Target Pair in BindingDB>
http://www.bindingdb.org/jsp/dbsearch/PrimarySearch_ki.jsp?energyterm=kJ/mole&tag=r21&monomerid=50461860&enzyme=Dihydroorotate+dehydrogenase&column=ki&startPg=0&Increment=50&submit=Search

> <PubChem CID>
145969566

> <PubChem SID>
433929125

$$$$

  Mrv2115 07222212352D          

 24 24  0  0  0  0            999 V2000
   -2.1434   -2.0625    0.0000 C   0  0  0  0  0  0  0  0  0  0  0  0
   -1.4289   -2.4750    0.0000 C   0  0  0  0  0  0  0  0  0  0  0  0
   -1.8414   -3.1895    0.0000 C   0  0  0  0  0  0  0  0  0  0  0  0
   -1.0164   -1.7605    0.0000 C   0  0  0  0  0  0  0  0  0  0  0  0
   -0.7145   -2.8875    0.0000 C   0  0  0  0  0  0  0  0  0  0  0  0
    0.0000   -2.4750    0.0000 C   0  0  0  0  0  0  0  0  0  0  0  0
    0.7145   -2.8875    0.0000 C   0  0  0  0  0  0  0  0  0  0  0  0
    0.7145   -3.7125    0.0000 O   0  0  0  0  0  0  0  0  0  0  0  0
    1.4289   -2.4750    0.0000 C   0  0  0  0  0  0  0  0  0  0  0  0
    1.4289   -1.6500    0.0000 C   0  0  0  0  0  0  0  0  0  0  0  0
    1.4289   -0.8250    0.0000 N   0  0  0  0  0  0  0  0  0  0  0  0
    2.1434   -2.8875    0.0000 C   0  0  0  0  0  0  0  0  0  0  0  0
    2.1434   -3.7125    0.0000 O   0  0  0  0  0  0  0  0  0  0  0  0
    2.8579   -2.4750    0.0000 N   0  0  0  0  0  0  0  0  0  0  0  0
    3.5724   -2.8875    0.0000 C   0  0  0  0  0  0  0  0  0  0  0  0
    4.2868   -2.4750    0.0000 C   0  0  0  0  0  0  0  0  0  0  0  0
    5.0013   -2.8875    0.0000 C   0  0  0  0  0  0  0  0  0  0  0  0
    5.0013   -3.7125    0.0000 C   0  0  0  0  0  0  0  0  0  0  0  0
    5.7158   -4.1250    0.0000 C   0  0  0  0  0  0  0  0  0  0  0  0
    6.4302   -4.5375    0.0000 F   0  0  0  0  0  0  0  0  0  0  0  0
    5.3033   -4.8395    0.0000 F   0  0  0  0  0  0  0  0  0  0  0  0
    6.1283   -3.4105    0.0000 F   0  0  0  0  0  0  0  0  0  0  0  0
    4.2868   -4.1250    0.0000 C   0  0  0  0  0  0  0  0  0  0  0  0
    3.5724   -3.7125    0.0000 C   0  0  0  0  0  0  0  0  0  0  0  0
  1  2  1  0  0  0  0
  2  3  1  0  0  0  0
  2  4  1  0  0  0  0
  2  5  1  0  0  0  0
  5  6  1  0  0  0  0
  6  7  1  0  0  0  0
  7  8  2  0  0  0  0
  7  9  1  0  0  0  0
  9 10  1  0  0  0  0
 10 11  3  0  0  0  0
  9 12  1  0  0  0  0
 12 13  2  0  0  0  0
 12 14  1  0  0  0  0
 14 15  1  0  0  0  0
 15 16  4  0  0  0  0
 16 17  4  0  0  0  0
 17 18  4  0  0  0  0
 18 19  1  0  0  0  0
 19 20  1  0  0  0  0
 19 21  1  0  0  0  0
 19 22  1  0  0  0  0
 18 23  4  0  0  0  0
 23 24  4  0  0  0  0
 15 24  4  0  0  0  0
M  END
> <IC50(uM)>
0.13

> <Outcome>
1.0

> <BindingDB ID>
176941

> <BindingDB MonomerID>
85304

> <BindingDB Ligand Name>
Alpha-cyano-beta-hydroxy enamide, 5

> <Curation/DataSource>
Curated from the literature by BindingDB

> <Article DOI>
?

> <PMID>
?

> <Patent Number>
?

> <Authors>
Papagergiou, C; Zurini, M; Weber, HP; Borer, X

> <Link to Ligand in BindingDB>
http://www.bindingdb.org/bind/chemsearch/marvin/MolStructure.jsp?monomerid=85304

> <Link to Ligand-Target Pair in BindingDB>
http://www.bindingdb.org/jsp/dbsearch/PrimarySearch_ki.jsp?energyterm=kJ/mole&tag=r21&monomerid=85304&enzyme=Dihydroorotate+dehydrogenase&column=ki&startPg=0&Increment=50&submit=Search

> <PubChem CID>
91898957

> <PubChem SID>
136351404

$$$$

  Mrv2115 07222212352D          

 23 24  0  0  0  0            999 V2000
    3.4656    1.1759    0.0000 C   0  0  0  0  0  0  0  0  0  0  0  0
    2.7512    0.7634    0.0000 C   0  0  0  0  0  0  0  0  0  0  0  0
    2.7512   -0.0616    0.0000 O   0  0  0  0  0  0  0  0  0  0  0  0
    2.0367   -0.4741    0.0000 C   0  0  0  0  0  0  0  0  0  0  0  0
    1.3222   -0.0616    0.0000 O   0  0  0  0  0  0  0  0  0  0  0  0
    2.0367   -1.2991    0.0000 C   0  0  0  0  0  0  0  0  0  0  0  0
    2.7041   -1.7840    0.0000 N   0  0  0  0  0  0  0  0  0  0  0  0
    2.4492   -2.5687    0.0000 C   0  0  0  0  0  0  0  0  0  0  0  0
    2.9341   -3.2361    0.0000 C   0  0  0  0  0  0  0  0  0  0  0  0
    1.6242   -2.5687    0.0000 C   0  0  0  0  0  0  0  0  0  0  0  0
    1.1393   -3.2361    0.0000 C   0  0  0  0  0  0  0  0  0  0  0  0
    0.3188   -3.1499    0.0000 C   0  0  0  0  0  0  0  0  0  0  0  0
   -0.1661   -3.8173    0.0000 C   0  0  0  0  0  0  0  0  0  0  0  0
   -0.9866   -3.7311    0.0000 C   0  0  0  0  0  0  0  0  0  0  0  0
   -1.3222   -2.9774    0.0000 C   0  0  0  0  0  0  0  0  0  0  0  0
   -2.1426   -2.8911    0.0000 C   0  0  0  0  0  0  0  0  0  0  0  0
   -2.9631   -2.8049    0.0000 F   0  0  0  0  0  0  0  0  0  0  0  0
   -2.0564   -2.0707    0.0000 F   0  0  0  0  0  0  0  0  0  0  0  0
   -2.2289   -3.7116    0.0000 F   0  0  0  0  0  0  0  0  0  0  0  0
   -0.8372   -2.3099    0.0000 C   0  0  0  0  0  0  0  0  0  0  0  0
   -0.0168   -2.3962    0.0000 N   0  0  0  0  0  0  0  0  0  0  0  0
    1.3693   -1.7840    0.0000 C   0  0  0  0  0  0  0  0  0  0  0  0
    0.5846   -1.5291    0.0000 C   0  0  0  0  0  0  0  0  0  0  0  0
  1  2  1  0  0  0  0
  2  3  1  0  0  0  0
  3  4  1  0  0  0  0
  4  5  2  0  0  0  0
  4  6  1  0  0  0  0
  6  7  4  0  0  0  0
  7  8  4  0  0  0  0
  8  9  1  0  0  0  0
  8 10  4  0  0  0  0
 10 11  1  0  0  0  0
 11 12  1  0  0  0  0
 12 13  4  0  0  0  0
 13 14  4  0  0  0  0
 14 15  4  0  0  0  0
 15 16  1  0  0  0  0
 16 17  1  0  0  0  0
 16 18  1  0  0  0  0
 16 19  1  0  0  0  0
 15 20  4  0  0  0  0
 20 21  4  0  0  0  0
 12 21  4  0  0  0  0
 10 22  4  0  0  0  0
  6 22  4  0  0  0  0
 22 23  1  0  0  0  0
M  STY  1   1 DAT
M  SAL   1  1   7
M  SDT   1 MRV_IMPLICIT_H                                        
M  SDD   1     0.5304   -0.4125    DR    ALL  0       0  
M  SED   1 IMPL_H1
M  END
> <IC50(uM)>
100.0

> <Outcome>
0.0

> <BindingDB ID>
51330084

> <BindingDB MonomerID>
50538332

> <BindingDB Ligand Name>
CHEMBL4633356

> <Curation/DataSource>
ChEMBL

> <Article DOI>
10.1021/acs.jmedchem.0c00311

> <PMID>
32248693

> <Patent Number>
?

> <Authors>
Kokkonda, S; Deng, X; White, KL; El Mazouni, F; White, J; Shackleford, DM; Katneni, K; Chiu, FCK; Barker, H; McLaren, J; Crighton, E; Chen, G; Angulo-Barturen, I; Jimenez-Diaz, MB; Ferrer, S; Huertas-Valentin, L; Martinez-Martinez, MS; Lafuente-Monasterio, MJ; Chittimalla, R; Shahi, SP; Wittlin, S; Waterson, D; Burrows, JN; Matthews, D; Tomchick, D; Rathod, PK; Palmer, MJ; Charman, SA; Phillips, MA

> <Link to Ligand in BindingDB>
http://www.bindingdb.org/bind/chemsearch/marvin/MolStructure.jsp?monomerid=50538332

> <Link to Ligand-Target Pair in BindingDB>
http://www.bindingdb.org/jsp/dbsearch/PrimarySearch_ki.jsp?energyterm=kJ/mole&tag=r21&monomerid=50538332&enzyme=Dihydroorotate+dehydrogenase&column=ki&startPg=0&Increment=50&submit=Search

> <PubChem CID>
156009985

> <PubChem SID>
442139895

$$$$

  Mrv2115 07222212352D          

 37 41  0  0  0  0            999 V2000
    9.7825    7.2979    0.0000 C   0  0  0  0  0  0  0  0  0  0  0  0
    9.0681    6.8854    0.0000 N   0  0  0  0  0  0  0  0  0  0  0  0
    9.0681    6.0604    0.0000 C   0  0  0  0  0  0  0  0  0  0  0  0
    8.3536    5.6479    0.0000 C   0  0  0  0  0  0  0  0  0  0  0  0
    7.6391    6.0604    0.0000 N   0  0  0  0  0  0  0  0  0  0  0  0
    6.9246    5.6479    0.0000 C   0  0  0  0  0  0  0  0  0  0  0  0
    6.9246    4.8229    0.0000 C   0  0  0  0  0  0  0  0  0  0  0  0
    7.6391    4.4104    0.0000 C   0  0  0  0  0  0  0  0  0  0  0  0
    7.6391    3.5854    0.0000 C   0  0  0  0  0  0  0  0  0  0  0  0
    6.9246    3.1729    0.0000 C   0  0  0  0  0  0  0  0  0  0  0  0
    6.2102    3.5854    0.0000 C   0  0  0  0  0  0  0  0  0  0  0  0
    5.4957    3.1729    0.0000 C   0  0  0  0  0  0  0  0  0  0  0  0
    5.4957    2.3479    0.0000 C   0  0  0  0  0  0  0  0  0  0  0  0
    6.2102    1.9354    0.0000 F   0  0  0  0  0  0  0  0  0  0  0  0
    4.7812    1.9354    0.0000 C   0  0  0  0  0  0  0  0  0  0  0  0
    4.7812    1.1104    0.0000 F   0  0  0  0  0  0  0  0  0  0  0  0
    4.0668    2.3479    0.0000 C   0  0  0  0  0  0  0  0  0  0  0  0
    3.3523    1.9354    0.0000 C   0  0  0  0  0  0  0  0  0  0  0  0
    3.3523    1.1104    0.0000 C   0  0  0  0  0  0  0  0  0  0  0  0
    2.6378    0.6979    0.0000 C   0  0  0  0  0  0  0  0  0  0  0  0
    2.6378   -0.1271    0.0000 C   0  0  0  0  0  0  0  0  0  0  0  0
    1.9233   -0.5396    0.0000 O   0  0  0  0  0  0  0  0  0  0  0  0
    3.3523   -0.5396    0.0000 O   0  0  0  0  0  0  0  0  0  0  0  0
    1.9233    1.1104    0.0000 C   0  0  0  0  0  0  0  0  0  0  0  0
    1.9233    1.9354    0.0000 C   0  0  0  0  0  0  0  0  0  0  0  0
    2.6378    2.3479    0.0000 C   0  0  0  0  0  0  0  0  0  0  0  0
    1.1387    2.1904    0.0000 N   0  0  0  0  0  0  0  0  0  0  0  0
    0.6538    1.5229    0.0000 N   0  0  0  0  0  0  0  0  0  0  0  0
    1.1387    0.8555    0.0000 N   0  0  0  0  0  0  0  0  0  0  0  0
    0.8838    0.0709    0.0000 C   0  0  0  0  0  0  0  0  0  0  0  0
    4.0668    3.1729    0.0000 C   0  0  0  0  0  0  0  0  0  0  0  0
    3.3523    3.5854    0.0000 F   0  0  0  0  0  0  0  0  0  0  0  0
    4.7812    3.5854    0.0000 C   0  0  0  0  0  0  0  0  0  0  0  0
    4.7812    4.4104    0.0000 F   0  0  0  0  0  0  0  0  0  0  0  0
    6.2102    4.4104    0.0000 C   0  0  0  0  0  0  0  0  0  0  0  0
    7.6391    6.8854    0.0000 C   0  0  0  0  0  0  0  0  0  0  0  0
    8.3536    7.2979    0.0000 C   0  0  0  0  0  0  0  0  0  0  0  0
  1  2  1  0  0  0  0
  2  3  1  0  0  0  0
  3  4  1  0  0  0  0
  4  5  1  0  0  0  0
  5  6  1  0  0  0  0
  6  7  1  0  0  0  0
  7  8  4  0  0  0  0
  8  9  4  0  0  0  0
  9 10  4  0  0  0  0
 10 11  4  0  0  0  0
 11 12  1  0  0  0  0
 12 13  4  0  0  0  0
 13 14  1  0  0  0  0
 13 15  4  0  0  0  0
 15 16  1  0  0  0  0
 15 17  4  0  0  0  0
 17 18  1  0  0  0  0
 18 19  4  0  0  0  0
 19 20  4  0  0  0  0
 20 21  1  0  0  0  0
 21 22  2  0  0  0  0
 21 23  1  0  0  0  0
 20 24  4  0  0  0  0
 24 25  4  0  0  0  0
 25 26  4  0  0  0  0
 18 26  4  0  0  0  0
 25 27  4  0  0  0  0
 27 28  4  0  0  0  0
 28 29  4  0  0  0  0
 24 29  4  0  0  0  0
 29 30  1  0  0  0  0
 17 31  4  0  0  0  0
 31 32  1  0  0  0  0
 31 33  4  0  0  0  0
 12 33  4  0  0  0  0
 33 34  1  0  0  0  0
 11 35  4  0  0  0  0
  7 35  4  0  0  0  0
  5 36  1  0  0  0  0
 36 37  1  0  0  0  0
  2 37  1  0  0  0  0
M  END
> <IC50(uM)>
1.0

> <Outcome>
1.0

> <BindingDB ID>
1100185

> <BindingDB MonomerID>
520644

> <BindingDB Ligand Name>
1-methyl-5-(2,3,5,6-tetrafluoro-3'-((4-methylpiperazin-1-yl)methyl)-[1,1'- biphenyl]-4-yl)-1H-benzo[d][1,2,3]triazole-7-carboxylic acid;::US11147801, Compound 35

> <Curation/DataSource>
US Patent

> <Article DOI>
?

> <PMID>
?

> <Patent Number>
US11147801

> <Authors>
Nellore, K; Hosahalli, S

> <Link to Ligand in BindingDB>
http://www.bindingdb.org/bind/chemsearch/marvin/MolStructure.jsp?monomerid=520644

> <Link to Ligand-Target Pair in BindingDB>
http://www.bindingdb.org/jsp/dbsearch/PrimarySearch_ki.jsp?energyterm=kJ/mole&tag=r21&monomerid=520644&enzyme=Dihydroorotate+dehydrogenase&column=ki&startPg=0&Increment=50&submit=Search

> <PubChem CID>
?

> <PubChem SID>
?

$$$$

  Mrv2115 07222212352D          

 26 28  0  0  0  0            999 V2000
    2.1434   -2.0625    0.0000 C   0  0  0  0  0  0  0  0  0  0  0  0
    2.1434   -1.2375    0.0000 O   0  0  0  0  0  0  0  0  0  0  0  0
    2.8579   -0.8250    0.0000 C   0  0  0  0  0  0  0  0  0  0  0  0
    2.8579    0.0000    0.0000 C   0  0  0  0  0  0  0  0  0  0  0  0
    3.5724    0.4125    0.0000 C   0  0  0  0  0  0  0  0  0  0  0  0
    4.2868    0.0000    0.0000 C   0  0  0  0  0  0  0  0  0  0  0  0
    5.0013    0.4125    0.0000 C   0  0  0  0  0  0  0  0  0  0  0  0
    5.0013    1.2375    0.0000 O   0  0  0  0  0  0  0  0  0  0  0  0
    5.7158    0.0000    0.0000 N   0  0  0  0  0  0  0  0  0  0  0  0
    6.4302    0.4125    0.0000 C   0  0  0  0  0  0  0  0  0  0  0  0
    7.1447    0.0000    0.0000 C   0  0  0  0  0  0  0  0  0  0  0  0
    7.8592    0.4125    0.0000 C   0  0  0  0  0  0  0  0  0  0  0  0
    7.8592    1.2375    0.0000 O   0  0  0  0  0  0  0  0  0  0  0  0
    8.5737    0.0000    0.0000 N   0  0  0  0  0  0  0  0  0  0  0  0
    9.2881    0.4125    0.0000 C   0  0  0  0  0  0  0  0  0  0  0  0
    9.2881    1.2375    0.0000 C   0  0  0  0  0  0  0  0  0  0  0  0
   10.0026    1.6500    0.0000 C   0  0  0  0  0  0  0  0  0  0  0  0
   10.7171    1.2375    0.0000 C   0  0  0  0  0  0  0  0  0  0  0  0
   10.7171    0.4125    0.0000 C   0  0  0  0  0  0  0  0  0  0  0  0
   11.4315    0.0000    0.0000 C   0  0  0  0  0  0  0  0  0  0  0  0
   11.4315   -0.8250    0.0000 C   0  0  0  0  0  0  0  0  0  0  0  0
   10.7171   -1.2375    0.0000 C   0  0  0  0  0  0  0  0  0  0  0  0
   10.0026   -0.8250    0.0000 C   0  0  0  0  0  0  0  0  0  0  0  0
   10.0026    0.0000    0.0000 C   0  0  0  0  0  0  0  0  0  0  0  0
    4.2868   -0.8250    0.0000 C   0  0  0  0  0  0  0  0  0  0  0  0
    3.5724   -1.2375    0.0000 C   0  0  0  0  0  0  0  0  0  0  0  0
  1  2  1  0  0  0  0
  2  3  1  0  0  0  0
  3  4  4  0  0  0  0
  4  5  4  0  0  0  0
  5  6  4  0  0  0  0
  6  7  1  0  0  0  0
  7  8  2  0  0  0  0
  7  9  1  0  0  0  0
  9 10  1  0  0  0  0
 10 11  1  0  0  0  0
 11 12  1  0  0  0  0
 12 13  2  0  0  0  0
 12 14  1  0  0  0  0
 14 15  1  0  0  0  0
 15 16  1  0  0  0  0
 16 17  1  0  0  0  0
 17 18  1  0  0  0  0
 18 19  1  0  0  0  0
 19 20  4  0  0  0  0
 20 21  4  0  0  0  0
 21 22  4  0  0  0  0
 22 23  4  0  0  0  0
 23 24  4  0  0  0  0
 19 24  4  0  0  0  0
 15 24  1  0  0  0  0
  6 25  4  0  0  0  0
 25 26  4  0  0  0  0
  3 26  4  0  0  0  0
M  END
> <IC50(uM)>
3.6

> <Outcome>
0.0

> <BindingDB ID>
50527771

> <BindingDB MonomerID>
50201617

> <BindingDB Ligand Name>
CHEMBL3187986

> <Curation/DataSource>
ChEMBL

> <Article DOI>
10.1021/acsmedchemlett.6b00316

> <PMID>
27994748

> <Patent Number>
?

> <Authors>
Lewis, TA; Sykes, DB; Law, JM; Mu??oz, B; Rustiguel, JK; Nonato, MC; Scadden, DT; Schreiber, SL

> <Link to Ligand in BindingDB>
http://www.bindingdb.org/bind/chemsearch/marvin/MolStructure.jsp?monomerid=50201617

> <Link to Ligand-Target Pair in BindingDB>
http://www.bindingdb.org/jsp/dbsearch/PrimarySearch_ki.jsp?energyterm=kJ/mole&tag=r21&monomerid=50201617&enzyme=Dihydroorotate+dehydrogenase&column=ki&startPg=0&Increment=50&submit=Search

> <PubChem CID>
71768306

> <PubChem SID>
375979405

$$$$

  Mrv2115 07222212352D          

 25 28  0  0  0  0            999 V2000
   -0.1712   -0.6979    0.0000 C   0  0  0  0  0  0  0  0  0  0  0  0
    0.6538   -0.6979    0.0000 C   0  0  0  0  0  0  0  0  0  0  0  0
    1.1387   -0.0305    0.0000 N   0  0  0  0  0  0  0  0  0  0  0  0
    1.9233   -0.2854    0.0000 C   0  0  0  0  0  0  0  0  0  0  0  0
    2.6378    0.1271    0.0000 C   0  0  0  0  0  0  0  0  0  0  0  0
    3.3523   -0.2854    0.0000 C   0  0  0  0  0  0  0  0  0  0  0  0
    3.3523   -1.1104    0.0000 C   0  0  0  0  0  0  0  0  0  0  0  0
    4.0668   -1.5229    0.0000 C   0  0  0  0  0  0  0  0  0  0  0  0
    4.8204   -1.1874    0.0000 N   0  0  0  0  0  0  0  0  0  0  0  0
    5.3725   -1.8005    0.0000 N   0  0  0  0  0  0  0  0  0  0  0  0
    4.9600   -2.5150    0.0000 C   0  0  0  0  0  0  0  0  0  0  0  0
    5.2955   -3.2686    0.0000 S   0  0  0  0  0  0  0  0  0  0  0  0
    4.8106   -3.9361    0.0000 C   0  0  0  0  0  0  0  0  0  0  0  0
    5.1462   -4.6897    0.0000 C   0  0  0  0  0  0  0  0  0  0  0  0
    5.9666   -4.7760    0.0000 O   0  0  0  0  0  0  0  0  0  0  0  0
    4.6612   -5.3572    0.0000 N   0  0  0  0  0  0  0  0  0  0  0  0
    4.9162   -6.1418    0.0000 C   0  0  0  0  0  0  0  0  0  0  0  0
    4.2487   -6.6267    0.0000 C   0  0  0  0  0  0  0  0  0  0  0  0
    3.5813   -6.1418    0.0000 C   0  0  0  0  0  0  0  0  0  0  0  0
    3.8362   -5.3572    0.0000 C   0  0  0  0  0  0  0  0  0  0  0  0
    4.1530   -2.3434    0.0000 O   0  0  0  0  0  0  0  0  0  0  0  0
    2.6378   -1.5229    0.0000 C   0  0  0  0  0  0  0  0  0  0  0  0
    1.9233   -1.1104    0.0000 C   0  0  0  0  0  0  0  0  0  0  0  0
    1.1387   -1.3654    0.0000 C   0  0  0  0  0  0  0  0  0  0  0  0
    0.8838   -2.1500    0.0000 C   0  0  0  0  0  0  0  0  0  0  0  0
  1  2  1  0  0  0  0
  2  3  4  0  0  0  0
  3  4  4  0  0  0  0
  4  5  4  0  0  0  0
  5  6  4  0  0  0  0
  6  7  4  0  0  0  0
  7  8  1  0  0  0  0
  8  9  4  0  0  0  0
  9 10  4  0  0  0  0
 10 11  4  0  0  0  0
 11 12  1  0  0  0  0
 12 13  1  0  0  0  0
 13 14  1  0  0  0  0
 14 15  2  0  0  0  0
 14 16  1  0  0  0  0
 16 17  1  0  0  0  0
 17 18  1  0  0  0  0
 18 19  1  0  0  0  0
 19 20  1  0  0  0  0
 16 20  1  0  0  0  0
 11 21  4  0  0  0  0
  8 21  4  0  0  0  0
  7 22  4  0  0  0  0
 22 23  4  0  0  0  0
  4 23  4  0  0  0  0
 23 24  4  0  0  0  0
  2 24  4  0  0  0  0
 24 25  1  0  0  0  0
M  STY  1   1 DAT
M  SAL   1  1   3
M  SDT   1 MRV_IMPLICIT_H                                        
M  SDD   1     0.5304   -0.4125    DR    ALL  0       0  
M  SED   1 IMPL_H1
M  END
> <IC50(uM)>
1.13

> <Outcome>
0.0

> <BindingDB ID>
51292551

> <BindingDB MonomerID>
50526858

> <BindingDB Ligand Name>
CHEMBL4592233

> <Curation/DataSource>
ChEMBL

> <Article DOI>
10.1016/j.ejmech.2019.111681

> <PMID>
31557612

> <Patent Number>
?

> <Authors>
Boschi, D; Pippione, AC; Sainas, S; Lolli, ML

> <Link to Ligand in BindingDB>
http://www.bindingdb.org/bind/chemsearch/marvin/MolStructure.jsp?monomerid=50526858

> <Link to Ligand-Target Pair in BindingDB>
http://www.bindingdb.org/jsp/dbsearch/PrimarySearch_ki.jsp?energyterm=kJ/mole&tag=r21&monomerid=50526858&enzyme=Dihydroorotate+dehydrogenase&column=ki&startPg=0&Increment=50&submit=Search

> <PubChem CID>
1374134

> <PubChem SID>
440735440

$$$$

  Mrv2115 07222212352D          

 26 29  0  0  0  0            999 V2000
    1.8500    2.0625    0.0000 O   0  0  0  0  0  0  0  0  0  0  0  0
    2.5645    2.4750    0.0000 C   0  0  0  0  0  0  0  0  0  0  0  0
    3.2789    2.0625    0.0000 N   0  0  0  0  0  0  0  0  0  0  0  0
    3.2789    1.2375    0.0000 C   0  0  0  0  0  0  0  0  0  0  0  0
    3.9934    0.8250    0.0000 C   0  0  0  0  0  0  0  0  0  0  0  0
    3.9934    0.0000    0.0000 C   0  0  0  0  0  0  0  0  0  0  0  0
    3.2789   -0.4125    0.0000 C   0  0  0  0  0  0  0  0  0  0  0  0
    2.5645    0.0000    0.0000 C   0  0  0  0  0  0  0  0  0  0  0  0
    2.5645    0.8250    0.0000 C   0  0  0  0  0  0  0  0  0  0  0  0
    1.7798    1.0799    0.0000 C   0  0  0  0  0  0  0  0  0  0  0  0
    1.2949    0.4125    0.0000 N   0  0  0  0  0  0  0  0  0  0  0  0
    1.7798   -0.2549    0.0000 N   0  0  0  0  0  0  0  0  0  0  0  0
    1.5249   -1.0396    0.0000 C   0  0  0  0  0  0  0  0  0  0  0  0
    2.0769   -1.6527    0.0000 C   0  0  0  0  0  0  0  0  0  0  0  0
    1.8220   -2.4373    0.0000 C   0  0  0  0  0  0  0  0  0  0  0  0
    1.0150   -2.6088    0.0000 C   0  0  0  0  0  0  0  0  0  0  0  0
    0.4630   -1.9957    0.0000 C   0  0  0  0  0  0  0  0  0  0  0  0
    0.7179   -1.2111    0.0000 C   0  0  0  0  0  0  0  0  0  0  0  0
    0.1659   -0.5980    0.0000 F   0  0  0  0  0  0  0  0  0  0  0  0
    2.5645    3.3000    0.0000 C   0  0  0  0  0  0  0  0  0  0  0  0
    1.8500    3.7125    0.0000 C   0  0  0  0  0  0  0  0  0  0  0  0
    1.8500    4.5375    0.0000 C   0  0  0  0  0  0  0  0  0  0  0  0
    1.1355    4.9500    0.0000 Cl  0  0  0  0  0  0  0  0  0  0  0  0
    2.5645    4.9500    0.0000 C   0  0  0  0  0  0  0  0  0  0  0  0
    3.2789    4.5375    0.0000 C   0  0  0  0  0  0  0  0  0  0  0  0
    3.2789    3.7125    0.0000 N   0  0  0  0  0  0  0  0  0  0  0  0
  1  2  2  0  0  0  0
  2  3  1  0  0  0  0
  3  4  1  0  0  0  0
  4  5  1  0  0  0  0
  5  6  1  0  0  0  0
  6  7  1  0  0  0  0
  7  8  1  0  0  0  0
  8  9  4  0  0  0  0
  4  9  1  0  0  0  0
  9 10  4  0  0  0  0
 10 11  4  0  0  0  0
 11 12  4  0  0  0  0
  8 12  4  0  0  0  0
 12 13  1  0  0  0  0
 13 14  4  0  0  0  0
 14 15  4  0  0  0  0
 15 16  4  0  0  0  0
 16 17  4  0  0  0  0
 17 18  4  0  0  0  0
 13 18  4  0  0  0  0
 18 19  1  0  0  0  0
  2 20  1  0  0  0  0
 20 21  4  0  0  0  0
 21 22  4  0  0  0  0
 22 23  1  0  0  0  0
 22 24  4  0  0  0  0
 24 25  4  0  0  0  0
 25 26  4  0  0  0  0
 20 26  4  0  0  0  0
M  END
> <IC50(uM)>
0.028499999999999998

> <Outcome>
1.0

> <BindingDB ID>
51334945; 993104

> <BindingDB MonomerID>
477606

> <BindingDB Ligand Name>
4-chloro-N-[(4R)-1-(2-fluorophenyl)-4,5,6,7-tetrahydro-1H-indazol-4-yl]pyridine-2-carboxamide::US10889564, Example 36

> <Curation/DataSource>
ChEMBL; US Patent

> <Article DOI>
10.1021/acs.jmedchem.9b01658; ?

> <PMID>
32212728; ?

> <Patent Number>
?; US10889564

> <Authors>
Popova, G; Ladds, MJGW; Johansson, L; Saleh, A; Larsson, J; Sandberg, L; Sahlberg, SH; Qian, W; Gullberg, H; Garg, N; Gustavsson, AL; Haraldsson, M; Lane, D; Yngve, U; Lain, S; Lain, S; Drummond, C; Leeuwen, IV; Haraldsson, M; Johansson, L; Sandberg, L; Yngve, U

> <Link to Ligand in BindingDB>
http://www.bindingdb.org/bind/chemsearch/marvin/MolStructure.jsp?monomerid=477606

> <Link to Ligand-Target Pair in BindingDB>
http://www.bindingdb.org/jsp/dbsearch/PrimarySearch_ki.jsp?energyterm=kJ/mole&tag=r21&monomerid=477606&enzyme=Dihydroorotate+dehydrogenase&column=ki&startPg=0&Increment=50&submit=Search

> <PubChem CID>
129104750

> <PubChem SID>
442137223

$$$$

  Mrv2115 07222212352D          

 23 24  0  0  0  0            999 V2000
    0.6078    1.1759    0.0000 C   0  0  0  0  0  0  0  0  0  0  0  0
    1.3222    0.7634    0.0000 C   0  0  0  0  0  0  0  0  0  0  0  0
    1.3222   -0.0616    0.0000 O   0  0  0  0  0  0  0  0  0  0  0  0
    2.0367   -0.4741    0.0000 C   0  0  0  0  0  0  0  0  0  0  0  0
    2.7512   -0.0616    0.0000 O   0  0  0  0  0  0  0  0  0  0  0  0
    2.0367   -1.2991    0.0000 C   0  0  0  0  0  0  0  0  0  0  0  0
    2.7041   -1.7840    0.0000 S   0  0  0  0  0  0  0  0  0  0  0  0
    2.4492   -2.5687    0.0000 C   0  0  0  0  0  0  0  0  0  0  0  0
    2.9341   -3.2361    0.0000 N   0  0  0  0  0  0  0  0  0  0  0  0
    2.5986   -3.9898    0.0000 C   0  0  0  0  0  0  0  0  0  0  0  0
    3.0835   -4.6572    0.0000 C   0  0  0  0  0  0  0  0  0  0  0  0
    2.7479   -5.4109    0.0000 C   0  0  0  0  0  0  0  0  0  0  0  0
    1.9275   -5.4971    0.0000 C   0  0  0  0  0  0  0  0  0  0  0  0
    1.5919   -6.2508    0.0000 C   0  0  0  0  0  0  0  0  0  0  0  0
    1.4425   -4.8297    0.0000 C   0  0  0  0  0  0  0  0  0  0  0  0
    0.6221   -4.9159    0.0000 F   0  0  0  0  0  0  0  0  0  0  0  0
    1.7781   -4.0760    0.0000 C   0  0  0  0  0  0  0  0  0  0  0  0
    1.6242   -2.5687    0.0000 N   0  0  0  0  0  0  0  0  0  0  0  0
    1.3693   -1.7840    0.0000 C   0  0  0  0  0  0  0  0  0  0  0  0
    0.5846   -1.5291    0.0000 C   0  0  0  0  0  0  0  0  0  0  0  0
   -0.2000   -1.2742    0.0000 C   0  0  0  0  0  0  0  0  0  0  0  0
    0.8396   -0.7445    0.0000 C   0  0  0  0  0  0  0  0  0  0  0  0
    0.3297   -2.3137    0.0000 C   0  0  0  0  0  0  0  0  0  0  0  0
  1  2  1  0  0  0  0
  2  3  1  0  0  0  0
  3  4  1  0  0  0  0
  4  5  2  0  0  0  0
  4  6  1  0  0  0  0
  6  7  4  0  0  0  0
  7  8  4  0  0  0  0
  8  9  1  0  0  0  0
  9 10  1  0  0  0  0
 10 11  4  0  0  0  0
 11 12  4  0  0  0  0
 12 13  4  0  0  0  0
 13 14  1  0  0  0  0
 13 15  4  0  0  0  0
 15 16  1  0  0  0  0
 15 17  4  0  0  0  0
 10 17  4  0  0  0  0
  8 18  4  0  0  0  0
 18 19  4  0  0  0  0
  6 19  4  0  0  0  0
 19 20  1  0  0  0  0
 20 21  1  0  0  0  0
 20 22  1  0  0  0  0
 20 23  1  0  0  0  0
M  END
> <IC50(uM)>
0.652

> <Outcome>
1.0

> <BindingDB ID>
50312273

> <BindingDB MonomerID>
50071626

> <BindingDB Ligand Name>
CHEMBL3410592

> <Curation/DataSource>
ChEMBL

> <Article DOI>
10.1021/jm501127s

> <PMID>
25580811

> <Patent Number>
?

> <Authors>
Zhu, J; Han, L; Diao, Y; Ren, X; Xu, M; Xu, L; Li, S; Li, Q; Dong, D; Huang, J; Liu, X; Zhao, Z; Wang, R; Zhu, L; Xu, Y; Qian, X; Li, H

> <Link to Ligand in BindingDB>
http://www.bindingdb.org/bind/chemsearch/marvin/MolStructure.jsp?monomerid=50071626

> <Link to Ligand-Target Pair in BindingDB>
http://www.bindingdb.org/jsp/dbsearch/PrimarySearch_ki.jsp?energyterm=kJ/mole&tag=r21&monomerid=50071626&enzyme=Dihydroorotate+dehydrogenase&column=ki&startPg=0&Increment=50&submit=Search

> <PubChem CID>
118732508

> <PubChem SID>
313072558

$$$$

  Mrv2115 07222212352D          

 22 24  0  0  0  0            999 V2000
    2.1434   -2.8875    0.0000 O   0  0  0  0  0  0  0  0  0  0  0  0
    1.4289   -2.4750    0.0000 C   0  0  0  0  0  0  0  0  0  0  0  0
    0.7145   -2.8875    0.0000 O   0  0  0  0  0  0  0  0  0  0  0  0
    1.4289   -1.6500    0.0000 C   0  0  0  0  0  0  0  0  0  0  0  0
    0.7145   -1.2375    0.0000 C   0  0  0  0  0  0  0  0  0  0  0  0
    0.0000   -1.6500    0.0000 O   0  0  0  0  0  0  0  0  0  0  0  0
    0.7145   -0.4125    0.0000 C   0  0  0  0  0  0  0  0  0  0  0  0
    0.0000    0.0000    0.0000 C   0  0  0  0  0  0  0  0  0  0  0  0
   -0.7145   -0.4125    0.0000 C   0  0  0  0  0  0  0  0  0  0  0  0
   -1.4289    0.0000    0.0000 C   0  0  0  0  0  0  0  0  0  0  0  0
   -1.4289    0.8250    0.0000 C   0  0  0  0  0  0  0  0  0  0  0  0
   -2.1434    1.2375    0.0000 O   0  0  0  0  0  0  0  0  0  0  0  0
   -0.7145    1.2375    0.0000 C   0  0  0  0  0  0  0  0  0  0  0  0
    0.0000    0.8250    0.0000 C   0  0  0  0  0  0  0  0  0  0  0  0
    1.4289    0.0000    0.0000 N   0  0  0  0  0  0  0  0  0  0  0  0
    2.1434   -0.4125    0.0000 C   0  0  0  0  0  0  0  0  0  0  0  0
    2.8579    0.0000    0.0000 C   0  0  0  0  0  0  0  0  0  0  0  0
    3.5724   -0.4125    0.0000 C   0  0  0  0  0  0  0  0  0  0  0  0
    3.5724   -1.2375    0.0000 C   0  0  0  0  0  0  0  0  0  0  0  0
    4.2868   -1.6500    0.0000 F   0  0  0  0  0  0  0  0  0  0  0  0
    2.8579   -1.6500    0.0000 C   0  0  0  0  0  0  0  0  0  0  0  0
    2.1434   -1.2375    0.0000 C   0  0  0  0  0  0  0  0  0  0  0  0
  1  2  2  0  0  0  0
  2  3  1  0  0  0  0
  2  4  1  0  0  0  0
  4  5  4  0  0  0  0
  5  6  1  0  0  0  0
  5  7  4  0  0  0  0
  7  8  1  0  0  0  0
  8  9  4  0  0  0  0
  9 10  4  0  0  0  0
 10 11  4  0  0  0  0
 11 12  1  0  0  0  0
 11 13  4  0  0  0  0
 13 14  4  0  0  0  0
  8 14  4  0  0  0  0
  7 15  4  0  0  0  0
 15 16  4  0  0  0  0
 16 17  4  0  0  0  0
 17 18  4  0  0  0  0
 18 19  4  0  0  0  0
 19 20  1  0  0  0  0
 19 21  4  0  0  0  0
 21 22  4  0  0  0  0
  4 22  4  0  0  0  0
 16 22  4  0  0  0  0
M  END
> <IC50(uM)>
2.1

> <Outcome>
0.0

> <BindingDB ID>
50841898

> <BindingDB MonomerID>
50201930

> <BindingDB Ligand Name>
6-fluoro-3-hydroxy-2-(4-hydroxyphenyl)quinoline-4-carboxylic acid::CHEMBL219489

> <Curation/DataSource>
ChEMBL

> <Article DOI>
10.1021/jm0602256

> <PMID>
17201408

> <Patent Number>
?

> <Authors>
Kaila, N; Janz, K; DeBernardo, S; Bedard, PW; Camphausen, RT; Tam, S; Tsao, DH; Keith, JC; Nickerson-Nutter, C; Shilling, A; Young-Sciame, R; Wang, Q

> <Link to Ligand in BindingDB>
http://www.bindingdb.org/bind/chemsearch/marvin/MolStructure.jsp?monomerid=50201930

> <Link to Ligand-Target Pair in BindingDB>
http://www.bindingdb.org/jsp/dbsearch/PrimarySearch_ki.jsp?energyterm=kJ/mole&tag=r21&monomerid=50201930&enzyme=Dihydroorotate+dehydrogenase&column=ki&startPg=0&Increment=50&submit=Search

> <PubChem CID>
54708675

> <PubChem SID>
104081581

$$$$

  Mrv2115 07222212352D          

 31 32  0  0  0  0            999 V2000
    1.4289   -6.6000    0.0000 C   0  0  0  0  0  0  0  0  0  0  0  0
    2.1434   -6.1875    0.0000 C   0  0  0  0  0  0  0  0  0  0  0  0
    2.8579   -6.6000    0.0000 C   0  0  0  0  0  0  0  0  0  0  0  0
    2.8579   -7.4250    0.0000 O   0  0  0  0  0  0  0  0  0  0  0  0
    3.5724   -6.1875    0.0000 C   0  0  0  0  0  0  0  0  0  0  0  0
    3.5724   -5.3625    0.0000 C   0  0  0  0  0  0  0  0  0  0  0  0
    3.5724   -4.5375    0.0000 N   0  0  0  0  0  0  0  0  0  0  0  0
    4.2868   -6.6000    0.0000 C   0  0  0  0  0  0  0  0  0  0  0  0
    4.2868   -7.4250    0.0000 O   0  0  0  0  0  0  0  0  0  0  0  0
    5.0013   -6.1875    0.0000 N   0  0  0  0  0  0  0  0  0  0  0  0
    5.7158   -6.6000    0.0000 C   0  0  0  0  0  0  0  0  0  0  0  0
    6.4302   -6.1875    0.0000 C   0  0  0  0  0  0  0  0  0  0  0  0
    7.1447   -6.6000    0.0000 C   0  0  0  0  0  0  0  0  0  0  0  0
    7.1447   -7.4250    0.0000 C   0  0  0  0  0  0  0  0  0  0  0  0
    7.8592   -7.8375    0.0000 C   0  0  0  0  0  0  0  0  0  0  0  0
    8.5737   -7.4250    0.0000 C   0  0  0  0  0  0  0  0  0  0  0  0
    9.2881   -7.8375    0.0000 C   0  0  0  0  0  0  0  0  0  0  0  0
    9.2881   -8.6625    0.0000 C   0  0  0  0  0  0  0  0  0  0  0  0
    8.5737   -9.0750    0.0000 C   0  0  0  0  0  0  0  0  0  0  0  0
    8.5737   -9.9000    0.0000 O   0  0  0  0  0  0  0  0  0  0  0  0
    9.2881  -10.3125    0.0000 C   0  0  0  0  0  0  0  0  0  0  0  0
   10.0026  -10.7250    0.0000 F   0  0  0  0  0  0  0  0  0  0  0  0
    8.8756  -11.0270    0.0000 F   0  0  0  0  0  0  0  0  0  0  0  0
    9.7006   -9.5980    0.0000 F   0  0  0  0  0  0  0  0  0  0  0  0
    7.8592   -8.6625    0.0000 C   0  0  0  0  0  0  0  0  0  0  0  0
    6.4302   -7.8375    0.0000 C   0  0  0  0  0  0  0  0  0  0  0  0
    6.4302   -8.6625    0.0000 C   0  0  0  0  0  0  0  0  0  0  0  0
    5.7158   -9.0750    0.0000 O   0  0  0  0  0  0  0  0  0  0  0  0
    7.1447   -9.0750    0.0000 O   0  0  0  0  0  0  0  0  0  0  0  0
    7.1447   -9.9000    0.0000 C   0  0  0  0  0  0  0  0  0  0  0  0
    5.7158   -7.4250    0.0000 C   0  0  0  0  0  0  0  0  0  0  0  0
  1  2  1  0  0  0  0
  2  3  1  0  0  0  0
  3  4  2  0  0  0  0
  3  5  1  0  0  0  0
  5  6  1  0  0  0  0
  6  7  3  0  0  0  0
  5  8  1  0  0  0  0
  8  9  2  0  0  0  0
  8 10  1  0  0  0  0
 10 11  1  0  0  0  0
 11 12  4  0  0  0  0
 12 13  4  0  0  0  0
 13 14  4  0  0  0  0
 14 15  1  0  0  0  0
 15 16  4  0  0  0  0
 16 17  4  0  0  0  0
 17 18  4  0  0  0  0
 18 19  4  0  0  0  0
 19 20  1  0  0  0  0
 20 21  1  0  0  0  0
 21 22  1  0  0  0  0
 21 23  1  0  0  0  0
 21 24  1  0  0  0  0
 19 25  4  0  0  0  0
 15 25  4  0  0  0  0
 14 26  4  0  0  0  0
 26 27  1  0  0  0  0
 27 28  2  0  0  0  0
 27 29  1  0  0  0  0
 29 30  1  0  0  0  0
 26 31  4  0  0  0  0
 11 31  4  0  0  0  0
M  END
> <IC50(uM)>
0.027

> <Outcome>
1.0

> <BindingDB ID>
50707374

> <BindingDB MonomerID>
50359695

> <BindingDB Ligand Name>
CHEMBL1929439

> <Curation/DataSource>
ChEMBL

> <Article DOI>
10.1016/j.bmcl.2011.10.052

> <PMID>
22078215

> <Patent Number>
?

> <Authors>
Erra, M; Moreno, I; Sanahuja, J; Andres, M; Reinoso, RF; Lozoya, E; Pizcueta, P; Godessart, N; Castro-Palomino, JC

> <Link to Ligand in BindingDB>
http://www.bindingdb.org/bind/chemsearch/marvin/MolStructure.jsp?monomerid=50359695

> <Link to Ligand-Target Pair in BindingDB>
http://www.bindingdb.org/jsp/dbsearch/PrimarySearch_ki.jsp?energyterm=kJ/mole&tag=r21&monomerid=50359695&enzyme=Dihydroorotate+dehydrogenase&column=ki&startPg=0&Increment=50&submit=Search

> <PubChem CID>
91930443

> <PubChem SID>
136963719

$$$$

  Mrv2115 07222212352D          

 28 30  0  0  0  0            999 V2000
   -2.8579   12.1286    0.0000 C   0  0  0  0  0  0  0  0  0  0  0  0
   -2.1434   11.7161    0.0000 C   0  0  0  0  0  0  0  0  0  0  0  0
   -2.1434   10.8911    0.0000 O   0  0  0  0  0  0  0  0  0  0  0  0
   -1.4289   10.4786    0.0000 C   0  0  0  0  0  0  0  0  0  0  0  0
   -0.7145   10.8911    0.0000 C   0  0  0  0  0  0  0  0  0  0  0  0
    0.0000   10.4786    0.0000 C   0  0  0  0  0  0  0  0  0  0  0  0
    0.0000    9.6536    0.0000 C   0  0  0  0  0  0  0  0  0  0  0  0
   -0.7145    9.2411    0.0000 C   0  0  0  0  0  0  0  0  0  0  0  0
   -0.7145    8.4161    0.0000 C   0  0  0  0  0  0  0  0  0  0  0  0
    0.0000    8.0036    0.0000 C   0  0  0  0  0  0  0  0  0  0  0  0
    0.0000    7.1786    0.0000 C   0  0  0  0  0  0  0  0  0  0  0  0
    0.7145    6.7661    0.0000 F   0  0  0  0  0  0  0  0  0  0  0  0
   -0.7145    6.7661    0.0000 C   0  0  0  0  0  0  0  0  0  0  0  0
   -0.7145    5.9411    0.0000 N   0  0  0  0  0  0  0  0  0  0  0  0
    0.0000    5.5286    0.0000 C   0  0  0  0  0  0  0  0  0  0  0  0
    0.7145    5.9411    0.0000 O   0  0  0  0  0  0  0  0  0  0  0  0
   -0.0000    4.7036    0.0000 C   0  0  0  0  0  0  0  0  0  0  0  0
   -0.6674    4.2187    0.0000 C   0  0  0  0  0  0  0  0  0  0  0  0
   -0.4125    3.4340    0.0000 C   0  0  0  0  0  0  0  0  0  0  0  0
    0.4125    3.4340    0.0000 S   0  0  0  0  0  0  0  0  0  0  0  0
    0.6674    4.2187    0.0000 C   0  0  0  0  0  0  0  0  0  0  0  0
    1.4521    4.4736    0.0000 C   0  0  0  0  0  0  0  0  0  0  0  0
    1.6236    5.2806    0.0000 O   0  0  0  0  0  0  0  0  0  0  0  0
    2.0652    3.9216    0.0000 O   0  0  0  0  0  0  0  0  0  0  0  0
   -1.4289    7.1786    0.0000 C   0  0  0  0  0  0  0  0  0  0  0  0
   -2.1434    6.7661    0.0000 F   0  0  0  0  0  0  0  0  0  0  0  0
   -1.4289    8.0036    0.0000 C   0  0  0  0  0  0  0  0  0  0  0  0
   -1.4289    9.6536    0.0000 C   0  0  0  0  0  0  0  0  0  0  0  0
  1  2  1  0  0  0  0
  2  3  1  0  0  0  0
  3  4  1  0  0  0  0
  4  5  4  0  0  0  0
  5  6  4  0  0  0  0
  6  7  4  0  0  0  0
  7  8  4  0  0  0  0
  8  9  1  0  0  0  0
  9 10  4  0  0  0  0
 10 11  4  0  0  0  0
 11 12  1  0  0  0  0
 11 13  4  0  0  0  0
 13 14  1  0  0  0  0
 14 15  1  0  0  0  0
 15 16  2  0  0  0  0
 15 17  1  0  0  0  0
 17 18  4  0  0  0  0
 18 19  4  0  0  0  0
 19 20  4  0  0  0  0
 20 21  4  0  0  0  0
 17 21  4  0  0  0  0
 21 22  1  0  0  0  0
 22 23  2  0  0  0  0
 22 24  1  0  0  0  0
 13 25  4  0  0  0  0
 25 26  1  0  0  0  0
 25 27  4  0  0  0  0
  9 27  4  0  0  0  0
  8 28  4  0  0  0  0
  4 28  4  0  0  0  0
M  END
> <IC50(uM)>
0.003

> <Outcome>
1.0

> <BindingDB ID>
29218

> <BindingDB MonomerID>
16115

> <BindingDB Ligand Name>
3-{[4-(3-ethoxyphenyl)-2,6-difluorophenyl]carbamoyl}thiophene-2-carboxylic acid::Biphenyl-4-ylcarbamoyl Thiophene Analog 6

> <Curation/DataSource>
Curated from the literature by BindingDB

> <Article DOI>
10.1016/j.bmcl.2005.10.011

> <PMID>
16246558

> <Patent Number>
?

> <Authors>
Leban, J; Kralik, M; Mies, J; Baumgartner, R; Gassen, M; Tasler, S

> <Link to Ligand in BindingDB>
http://www.bindingdb.org/bind/chemsearch/marvin/MolStructure.jsp?monomerid=16115

> <Link to Ligand-Target Pair in BindingDB>
http://www.bindingdb.org/jsp/dbsearch/PrimarySearch_ki.jsp?energyterm=kJ/mole&tag=r21&monomerid=16115&enzyme=Dihydroorotate+Dehydrogenase+%28DHODH%29&column=ki&startPg=0&Increment=50&submit=Search

> <PubChem CID>
23647299

> <PubChem SID>
46516374

$$$$

  Mrv2115 07222212352D          

 36 40  0  0  0  0            999 V2000
   -1.8659    1.4455    0.0000 C   0  0  0  0  0  0  0  0  0  0  0  0
   -2.6909    1.4455    0.0000 C   0  0  0  0  0  0  0  0  0  0  0  0
   -3.1034    0.7310    0.0000 O   0  0  0  0  0  0  0  0  0  0  0  0
   -2.6909    0.0165    0.0000 C   0  0  0  0  0  0  0  0  0  0  0  0
   -1.8659    0.0165    0.0000 C   0  0  0  0  0  0  0  0  0  0  0  0
   -1.4534   -0.6979    0.0000 C   0  0  0  0  0  0  0  0  0  0  0  0
   -0.6284   -0.6979    0.0000 N   0  0  0  0  0  0  0  0  0  0  0  0
   -0.1435   -1.3654    0.0000 N   0  0  0  0  0  0  0  0  0  0  0  0
    0.6411   -1.1104    0.0000 C   0  0  0  0  0  0  0  0  0  0  0  0
    0.6411   -0.2854    0.0000 N   0  0  0  0  0  0  0  0  0  0  0  0
   -0.1435   -0.0305    0.0000 C   0  0  0  0  0  0  0  0  0  0  0  0
   -0.3984    0.7541    0.0000 O   0  0  0  0  0  0  0  0  0  0  0  0
    1.3556    0.1271    0.0000 C   0  0  0  0  0  0  0  0  0  0  0  0
    2.0701   -0.2854    0.0000 C   0  0  0  0  0  0  0  0  0  0  0  0
    2.0701   -1.1104    0.0000 C   0  0  0  0  0  0  0  0  0  0  0  0
    1.3556   -1.5229    0.0000 C   0  0  0  0  0  0  0  0  0  0  0  0
   -1.8659   -1.4124    0.0000 C   0  0  0  0  0  0  0  0  0  0  0  0
   -1.4534   -2.1269    0.0000 F   0  0  0  0  0  0  0  0  0  0  0  0
   -2.6909   -1.4124    0.0000 C   0  0  0  0  0  0  0  0  0  0  0  0
   -3.1034   -0.6979    0.0000 C   0  0  0  0  0  0  0  0  0  0  0  0
   -3.9284   -0.6979    0.0000 C   0  0  0  0  0  0  0  0  0  0  0  0
   -4.3409    0.0165    0.0000 O   0  0  0  0  0  0  0  0  0  0  0  0
   -4.3409   -1.4124    0.0000 N   0  0  0  0  0  0  0  0  0  0  0  0
   -3.9284   -2.1269    0.0000 C   0  0  0  0  0  0  0  0  0  0  0  0
   -3.1034   -2.1269    0.0000 C   0  0  0  0  0  0  0  0  0  0  0  0
   -2.6909   -2.8414    0.0000 C   0  0  0  0  0  0  0  0  0  0  0  0
   -3.1034   -3.5558    0.0000 C   0  0  0  0  0  0  0  0  0  0  0  0
   -3.9284   -3.5558    0.0000 C   0  0  0  0  0  0  0  0  0  0  0  0
   -4.3409   -2.8414    0.0000 C   0  0  0  0  0  0  0  0  0  0  0  0
   -5.1659   -2.8414    0.0000 F   0  0  0  0  0  0  0  0  0  0  0  0
   -3.1034    2.1599    0.0000 C   0  0  0  0  0  0  0  0  0  0  0  0
   -3.9284    2.1599    0.0000 C   0  0  0  0  0  0  0  0  0  0  0  0
   -4.3409    2.8744    0.0000 C   0  0  0  0  0  0  0  0  0  0  0  0
   -3.9284    3.5889    0.0000 C   0  0  0  0  0  0  0  0  0  0  0  0
   -3.1034    3.5889    0.0000 C   0  0  0  0  0  0  0  0  0  0  0  0
   -2.6909    2.8744    0.0000 C   0  0  0  0  0  0  0  0  0  0  0  0
  1  2  1  0  0  0  0
  2  3  1  0  0  0  0
  3  4  1  0  0  0  0
  4  5  4  0  0  0  0
  5  6  4  0  0  0  0
  6  7  1  0  0  0  0
  7  8  4  0  0  0  0
  8  9  4  0  0  0  0
  9 10  4  0  0  0  0
 10 11  4  0  0  0  0
  7 11  4  0  0  0  0
 11 12  2  0  0  0  0
 10 13  1  0  0  0  0
 13 14  1  0  0  0  0
 14 15  1  0  0  0  0
 15 16  1  0  0  0  0
  9 16  1  0  0  0  0
  6 17  4  0  0  0  0
 17 18  1  0  0  0  0
 17 19  4  0  0  0  0
 19 20  4  0  0  0  0
  4 20  4  0  0  0  0
 20 21  1  0  0  0  0
 21 22  2  0  0  0  0
 21 23  1  0  0  0  0
 23 24  1  0  0  0  0
 24 25  4  0  0  0  0
 25 26  4  0  0  0  0
 26 27  4  0  0  0  0
 27 28  4  0  0  0  0
 28 29  4  0  0  0  0
 24 29  4  0  0  0  0
 29 30  1  0  0  0  0
  2 31  1  0  0  0  0
 31 32  1  0  0  0  0
 32 33  1  0  0  0  0
 33 34  1  0  0  0  0
 34 35  1  0  0  0  0
 35 36  1  0  0  0  0
 31 36  1  0  0  0  0
M  END
> <IC50(uM)>
0.047

> <Outcome>
1.0

> <BindingDB ID>
1020538; 1020537

> <BindingDB MonomerID>
490480

> <BindingDB Ligand Name>
2-[(1S)-1-cyclohexylethoxy]-5-fluoro-N-(2-fluorophenyl)-4-(3-oxo-5,6,7,8-tetrahydro[1,2,4]-triazolo[4,3-a]pyridin-2(3H)-yl)benzamide::US10968216, Example 148

> <Curation/DataSource>
US Patent

> <Article DOI>
?

> <PMID>
?

> <Patent Number>
US10968216

> <Authors>
Gradl, SN; Nguyen, D; Eis, K; Gunther, J; Stellfeld, T; Janzer, A; Christian, S; Mueller, T; Sheikh, SE; Zhou, HJ; Zhao, C; Sykes, DB; Ferrara, SJ; Liu, K; Herbert, SA; Merz, C; Niehues, M; Nising, CF; Schafer, M; Zimmermann, K; Knablein, J; Thede, K; Faupel, T

> <Link to Ligand in BindingDB>
http://www.bindingdb.org/bind/chemsearch/marvin/MolStructure.jsp?monomerid=490480

> <Link to Ligand-Target Pair in BindingDB>
http://www.bindingdb.org/jsp/dbsearch/PrimarySearch_ki.jsp?energyterm=kJ/mole&tag=r21&monomerid=490480&enzyme=Dihydroorotate+dehydrogenase&column=ki&startPg=0&Increment=50&submit=Search

> <PubChem CID>
134474371

> <PubChem SID>
447117207

$$$$

  Mrv2115 07222212352D          

 41 46  0  0  0  0            999 V2000
   -1.8659    1.4455    0.0000 C   0  0  0  0  0  0  0  0  0  0  0  0
   -2.6909    1.4455    0.0000 C   0  0  0  0  0  0  0  0  0  0  0  0
   -3.1034    0.7310    0.0000 O   0  0  0  0  0  0  0  0  0  0  0  0
   -2.6909    0.0165    0.0000 C   0  0  0  0  0  0  0  0  0  0  0  0
   -1.8659    0.0165    0.0000 C   0  0  0  0  0  0  0  0  0  0  0  0
   -1.4534   -0.6979    0.0000 C   0  0  0  0  0  0  0  0  0  0  0  0
   -0.6284   -0.6979    0.0000 N   0  0  0  0  0  0  0  0  0  0  0  0
   -0.1435   -1.3654    0.0000 N   0  0  0  0  0  0  0  0  0  0  0  0
    0.6411   -1.1104    0.0000 C   0  0  0  0  0  0  0  0  0  0  0  0
    0.6411   -0.2854    0.0000 N   0  0  0  0  0  0  0  0  0  0  0  0
   -0.1435   -0.0305    0.0000 C   0  0  0  0  0  0  0  0  0  0  0  0
   -0.3984    0.7541    0.0000 O   0  0  0  0  0  0  0  0  0  0  0  0
    1.3556    0.1271    0.0000 C   0  0  0  0  0  0  0  0  0  0  0  0
    2.0701   -0.2854    0.0000 C   0  0  0  0  0  0  0  0  0  0  0  0
    2.0701   -1.1104    0.0000 C   0  0  0  0  0  0  0  0  0  0  0  0
    1.3556   -1.5229    0.0000 C   0  0  0  0  0  0  0  0  0  0  0  0
   -1.8659   -1.4124    0.0000 C   0  0  0  0  0  0  0  0  0  0  0  0
   -1.4534   -2.1269    0.0000 F   0  0  0  0  0  0  0  0  0  0  0  0
   -2.6909   -1.4124    0.0000 C   0  0  0  0  0  0  0  0  0  0  0  0
   -3.1034   -0.6979    0.0000 C   0  0  0  0  0  0  0  0  0  0  0  0
   -3.9284   -0.6979    0.0000 C   0  0  0  0  0  0  0  0  0  0  0  0
   -4.3409    0.0165    0.0000 O   0  0  0  0  0  0  0  0  0  0  0  0
   -4.3409   -1.4124    0.0000 N   0  0  0  0  0  0  0  0  0  0  0  0
   -3.9284   -2.1269    0.0000 C   0  0  0  0  0  0  0  0  0  0  0  0
   -3.1034   -2.1269    0.0000 N   0  0  0  0  0  0  0  0  0  0  0  0
   -2.6909   -2.8414    0.0000 C   0  0  0  0  0  0  0  0  0  0  0  0
   -3.1034   -3.5558    0.0000 C   0  0  0  0  0  0  0  0  0  0  0  0
   -3.9284   -3.5558    0.0000 N   0  0  0  0  0  0  0  0  0  0  0  0
   -4.3409   -2.8414    0.0000 C   0  0  0  0  0  0  0  0  0  0  0  0
   -5.1659   -2.8414    0.0000 N   0  0  0  0  0  0  0  0  0  0  0  0
   -5.5784   -3.5558    0.0000 C   0  0  0  0  0  0  0  0  0  0  0  0
   -6.4034   -3.5558    0.0000 C   0  0  0  0  0  0  0  0  0  0  0  0
   -6.8159   -2.8414    0.0000 O   0  0  0  0  0  0  0  0  0  0  0  0
   -6.4034   -2.1269    0.0000 C   0  0  0  0  0  0  0  0  0  0  0  0
   -5.5784   -2.1269    0.0000 C   0  0  0  0  0  0  0  0  0  0  0  0
   -3.1034    2.1599    0.0000 C   0  0  0  0  0  0  0  0  0  0  0  0
   -3.9284    2.1599    0.0000 C   0  0  0  0  0  0  0  0  0  0  0  0
   -4.3409    2.8744    0.0000 C   0  0  0  0  0  0  0  0  0  0  0  0
   -3.9284    3.5889    0.0000 C   0  0  0  0  0  0  0  0  0  0  0  0
   -3.1034    3.5889    0.0000 C   0  0  0  0  0  0  0  0  0  0  0  0
   -2.6909    2.8744    0.0000 C   0  0  0  0  0  0  0  0  0  0  0  0
  1  2  1  0  0  0  0
  2  3  1  0  0  0  0
  3  4  1  0  0  0  0
  4  5  4  0  0  0  0
  5  6  4  0  0  0  0
  6  7  1  0  0  0  0
  7  8  4  0  0  0  0
  8  9  4  0  0  0  0
  9 10  4  0  0  0  0
 10 11  4  0  0  0  0
  7 11  4  0  0  0  0
 11 12  2  0  0  0  0
 10 13  1  0  0  0  0
 13 14  1  0  0  0  0
 14 15  1  0  0  0  0
 15 16  1  0  0  0  0
  9 16  1  0  0  0  0
  6 17  4  0  0  0  0
 17 18  1  0  0  0  0
 17 19  4  0  0  0  0
 19 20  4  0  0  0  0
  4 20  4  0  0  0  0
 20 21  1  0  0  0  0
 21 22  2  0  0  0  0
 21 23  1  0  0  0  0
 23 24  1  0  0  0  0
 24 25  4  0  0  0  0
 25 26  4  0  0  0  0
 26 27  4  0  0  0  0
 27 28  4  0  0  0  0
 28 29  4  0  0  0  0
 24 29  4  0  0  0  0
 29 30  1  0  0  0  0
 30 31  1  0  0  0  0
 31 32  1  0  0  0  0
 32 33  1  0  0  0  0
 33 34  1  0  0  0  0
 34 35  1  0  0  0  0
 30 35  1  0  0  0  0
  2 36  1  0  0  0  0
 36 37  1  0  0  0  0
 37 38  1  0  0  0  0
 38 39  1  0  0  0  0
 39 40  1  0  0  0  0
 40 41  1  0  0  0  0
 36 41  1  0  0  0  0
M  END
> <IC50(uM)>
0.5

> <Outcome>
1.0

> <BindingDB ID>
1020521

> <BindingDB MonomerID>
490469

> <BindingDB Ligand Name>
2-[(1S)-1-cyclohexylethoxy]-5-fluoro-N-[3-(morpholin-4-yl)pyrazin-2-yl]-4-(3-oxo-5,6,7,8-tetrahydro[1,2,4]triazolo[4,3-a]pyridin-2(3H)-yl)benzamide::US10968216, Example 137

> <Curation/DataSource>
US Patent

> <Article DOI>
?

> <PMID>
?

> <Patent Number>
US10968216

> <Authors>
Gradl, SN; Nguyen, D; Eis, K; Gunther, J; Stellfeld, T; Janzer, A; Christian, S; Mueller, T; Sheikh, SE; Zhou, HJ; Zhao, C; Sykes, DB; Ferrara, SJ; Liu, K; Herbert, SA; Merz, C; Niehues, M; Nising, CF; Schafer, M; Zimmermann, K; Knablein, J; Thede, K; Faupel, T

> <Link to Ligand in BindingDB>
http://www.bindingdb.org/bind/chemsearch/marvin/MolStructure.jsp?monomerid=490469

> <Link to Ligand-Target Pair in BindingDB>
http://www.bindingdb.org/jsp/dbsearch/PrimarySearch_ki.jsp?energyterm=kJ/mole&tag=r21&monomerid=490469&enzyme=Dihydroorotate+dehydrogenase&column=ki&startPg=0&Increment=50&submit=Search

> <PubChem CID>
134474396

> <PubChem SID>
447117196

$$$$

  Mrv2115 07222212352D          

 30 32  0  0  0  0            999 V2000
   -3.4782    6.7819    0.0000 C   0  0  0  0  0  0  0  0  0  0  0  0
   -2.6577    6.6957    0.0000 C   0  0  0  0  0  0  0  0  0  0  0  0
   -2.3221    5.9420    0.0000 C   0  0  0  0  0  0  0  0  0  0  0  0
   -1.5152    5.7705    0.0000 N   0  0  0  0  0  0  0  0  0  0  0  0
   -1.4289    4.9500    0.0000 N   0  0  0  0  0  0  0  0  0  0  0  0
   -0.7145    4.5375    0.0000 C   0  0  0  0  0  0  0  0  0  0  0  0
    0.0000    4.9500    0.0000 C   0  0  0  0  0  0  0  0  0  0  0  0
    0.7145    4.5375    0.0000 C   0  0  0  0  0  0  0  0  0  0  0  0
    1.4289    4.9500    0.0000 O   0  0  0  0  0  0  0  0  0  0  0  0
    1.4289    5.7750    0.0000 C   0  0  0  0  0  0  0  0  0  0  0  0
    0.7145    6.1875    0.0000 C   0  0  0  0  0  0  0  0  0  0  0  0
    2.1434    6.1875    0.0000 C   0  0  0  0  0  0  0  0  0  0  0  0
    2.5559    6.9020    0.0000 C   0  0  0  0  0  0  0  0  0  0  0  0
    2.9684    6.1875    0.0000 C   0  0  0  0  0  0  0  0  0  0  0  0
    0.7145    3.7125    0.0000 C   0  0  0  0  0  0  0  0  0  0  0  0
    1.4289    3.3000    0.0000 C   0  0  0  0  0  0  0  0  0  0  0  0
    2.1434    3.7125    0.0000 O   0  0  0  0  0  0  0  0  0  0  0  0
    1.4289    2.4750    0.0000 N   0  0  0  0  0  0  0  0  0  0  0  0
    2.1434    2.0625    0.0000 C   0  0  0  0  0  0  0  0  0  0  0  0
    2.1434    1.2375    0.0000 C   0  0  0  0  0  0  0  0  0  0  0  0
    2.8579    0.8250    0.0000 C   0  0  0  0  0  0  0  0  0  0  0  0
    2.8579    2.4750    0.0000 C   0  0  0  0  0  0  0  0  0  0  0  0
    3.5724    2.0625    0.0000 C   0  0  0  0  0  0  0  0  0  0  0  0
    0.0000    3.3000    0.0000 C   0  0  0  0  0  0  0  0  0  0  0  0
   -0.7145    3.7125    0.0000 C   0  0  0  0  0  0  0  0  0  0  0  0
   -1.4289    3.3000    0.0000 F   0  0  0  0  0  0  0  0  0  0  0  0
   -2.1826    4.6144    0.0000 C   0  0  0  0  0  0  0  0  0  0  0  0
   -2.3541    3.8075    0.0000 O   0  0  0  0  0  0  0  0  0  0  0  0
   -2.7346    5.2275    0.0000 N   0  0  0  0  0  0  0  0  0  0  0  0
   -3.5551    5.1413    0.0000 C   0  0  0  0  0  0  0  0  0  0  0  0
  1  2  1  0  0  0  0
  2  3  1  0  0  0  0
  3  4  4  0  0  0  0
  4  5  4  0  0  0  0
  5  6  1  0  0  0  0
  6  7  4  0  0  0  0
  7  8  4  0  0  0  0
  8  9  1  0  0  0  0
  9 10  1  0  0  0  0
 10 11  1  0  0  0  0
 10 12  1  0  0  0  0
 12 13  1  0  0  0  0
 13 14  1  0  0  0  0
 12 14  1  0  0  0  0
  8 15  4  0  0  0  0
 15 16  1  0  0  0  0
 16 17  2  0  0  0  0
 16 18  1  0  0  0  0
 18 19  1  0  0  0  0
 19 20  1  0  0  0  0
 20 21  1  0  0  0  0
 19 22  1  0  0  0  0
 22 23  1  0  0  0  0
 15 24  4  0  0  0  0
 24 25  4  0  0  0  0
  6 25  4  0  0  0  0
 25 26  1  0  0  0  0
  5 27  4  0  0  0  0
 27 28  2  0  0  0  0
 27 29  4  0  0  0  0
  3 29  4  0  0  0  0
 29 30  1  0  0  0  0
M  END
> <IC50(uM)>
0.22075

> <Outcome>
1.0

> <BindingDB ID>
1098782; 972628; 1098781; 972627

> <BindingDB MonomerID>
470510

> <BindingDB Ligand Name>
2-(1-cyclopropylethoxy)-4-(3-ethyl-4-methyl-5-oxo-4,5-dihydro-1H-1,2,4-triazol-1-yl)-5-fluoro-N-(pentan-3-yl)benzamide, Mixture of Stereoisomers::US10815215, Example 168::US11130745, Example 168; 2-(1-cyclopropylethoxy)-4-(3-ethyl-4-methyl-5-oxo-4,5-dihydro-1H-1,2,4-triazol-1-yl)-5-fluoro-N-(pentan-3-yl)benzamide, Mixture of Stereoisomers::US10815215, Example 168

> <Curation/DataSource>
US Patent

> <Article DOI>
?

> <PMID>
?

> <Patent Number>
US11130745; US10815215

> <Authors>
Gradl, SN; Nguyen, D; Eis, K; Gunther, J; Stellfeld, T; Janzer, A; Christian, S; Muller, T; Sheikh, SE; Sykes, DB; Ferrara, SJ; Krober, M; Merz, C; Niehues, M; Schafer, M; Zimmermann, K; Nising, CF; Gradl, SN; Nguyen, D; Eis, K; Gunther, J; Stellfeld, T; Janzer, A; Christian, S; Muller, T; Sheikh, SE; Zhou, HJ; Zhao, C; Sykes, DB; Ferrara, SJ; Liu, K; Krober, M; Merz, C; Niehues, M; Schafer, M; Zimmermann, K; Nising, CF

> <Link to Ligand in BindingDB>
http://www.bindingdb.org/bind/chemsearch/marvin/MolStructure.jsp?monomerid=470510

> <Link to Ligand-Target Pair in BindingDB>
http://www.bindingdb.org/jsp/dbsearch/PrimarySearch_ki.jsp?energyterm=kJ/mole&tag=r21&monomerid=470510&enzyme=Dihydroorotate+dehydrogenase&column=ki&startPg=0&Increment=50&submit=Search

> <PubChem CID>
134470180

> <PubChem SID>
441609687

$$$$

  Mrv2115 07222212352D          

 30 33  0  0  0  0            999 V2000
    2.5559   -1.8243    0.0000 O   0  0  0  0  0  0  0  0  0  0  0  0
    2.5559   -2.6493    0.0000 C   0  0  0  0  0  0  0  0  0  0  0  0
    1.8414   -3.0618    0.0000 O   0  0  0  0  0  0  0  0  0  0  0  0
    3.2704   -3.0618    0.0000 C   0  0  0  0  0  0  0  0  0  0  0  0
    3.2704   -3.8868    0.0000 C   0  0  0  0  0  0  0  0  0  0  0  0
    3.9849   -4.2993    0.0000 C   0  0  0  0  0  0  0  0  0  0  0  0
    3.9849   -5.1243    0.0000 C   0  0  0  0  0  0  0  0  0  0  0  0
    4.3974   -5.8388    0.0000 C   0  0  0  0  0  0  0  0  0  0  0  0
    3.5724   -5.8388    0.0000 C   0  0  0  0  0  0  0  0  0  0  0  0
    4.6993   -3.8868    0.0000 C   0  0  0  0  0  0  0  0  0  0  0  0
    4.6993   -3.0618    0.0000 C   0  0  0  0  0  0  0  0  0  0  0  0
    3.9849   -2.6493    0.0000 C   0  0  0  0  0  0  0  0  0  0  0  0
    3.9849   -1.8243    0.0000 N   0  0  0  0  0  0  0  0  0  0  0  0
    4.6993   -1.4118    0.0000 C   0  0  0  0  0  0  0  0  0  0  0  0
    4.6993   -0.5868    0.0000 C   0  0  0  0  0  0  0  0  0  0  0  0
    5.4138   -0.1743    0.0000 N   0  0  0  0  0  0  0  0  0  0  0  0
    6.1283   -0.5868    0.0000 C   0  0  0  0  0  0  0  0  0  0  0  0
    6.8427   -0.1743    0.0000 C   0  0  0  0  0  0  0  0  0  0  0  0
    6.8427    0.6507    0.0000 C   0  0  0  0  0  0  0  0  0  0  0  0
    7.5572    1.0632    0.0000 C   0  0  0  0  0  0  0  0  0  0  0  0
    7.5572    1.8882    0.0000 C   0  0  0  0  0  0  0  0  0  0  0  0
    7.5572    2.7132    0.0000 F   0  0  0  0  0  0  0  0  0  0  0  0
    8.3822    1.8882    0.0000 F   0  0  0  0  0  0  0  0  0  0  0  0
    6.7322    1.8882    0.0000 F   0  0  0  0  0  0  0  0  0  0  0  0
    8.2717    0.6507    0.0000 C   0  0  0  0  0  0  0  0  0  0  0  0
    8.2717   -0.1743    0.0000 C   0  0  0  0  0  0  0  0  0  0  0  0
    7.5572   -0.5868    0.0000 C   0  0  0  0  0  0  0  0  0  0  0  0
    7.5572   -1.4118    0.0000 F   0  0  0  0  0  0  0  0  0  0  0  0
    6.1283   -1.4118    0.0000 N   0  0  0  0  0  0  0  0  0  0  0  0
    5.4138   -1.8243    0.0000 C   0  0  0  0  0  0  0  0  0  0  0  0
  1  2  2  0  0  0  0
  2  3  1  0  0  0  0
  2  4  1  0  0  0  0
  4  5  4  0  0  0  0
  5  6  4  0  0  0  0
  6  7  1  0  0  0  0
  7  8  1  0  0  0  0
  8  9  1  0  0  0  0
  7  9  1  0  0  0  0
  6 10  4  0  0  0  0
 10 11  4  0  0  0  0
 11 12  4  0  0  0  0
  4 12  4  0  0  0  0
 12 13  1  0  0  0  0
 13 14  1  0  0  0  0
 14 15  4  0  0  0  0
 15 16  4  0  0  0  0
 16 17  4  0  0  0  0
 17 18  1  0  0  0  0
 18 19  4  0  0  0  0
 19 20  4  0  0  0  0
 20 21  1  0  0  0  0
 21 22  1  0  0  0  0
 21 23  1  0  0  0  0
 21 24  1  0  0  0  0
 20 25  4  0  0  0  0
 25 26  4  0  0  0  0
 26 27  4  0  0  0  0
 18 27  4  0  0  0  0
 27 28  1  0  0  0  0
 17 29  4  0  0  0  0
 29 30  4  0  0  0  0
 14 30  4  0  0  0  0
M  END
> <IC50(uM)>
0.021

> <Outcome>
1.0

> <BindingDB ID>
220026

> <BindingDB MonomerID>
102496

> <BindingDB Ligand Name>
US8536165, 104

> <Curation/DataSource>
US Patent

> <Article DOI>
?

> <PMID>
?

> <Patent Number>
US8536165

> <Authors>
Castro Palomino Laria, JC; Terricabras Belart, E; Erra Sola, M; Navarro Romero, E; Fonquerna Pou, S; Cardus Figueras, A; Lozoya Toribio, ME

> <Link to Ligand in BindingDB>
http://www.bindingdb.org/bind/chemsearch/marvin/MolStructure.jsp?monomerid=102496

> <Link to Ligand-Target Pair in BindingDB>
http://www.bindingdb.org/jsp/dbsearch/PrimarySearch_ki.jsp?energyterm=kJ/mole&tag=r21&monomerid=102496&enzyme=Dihydroorotate+dehydrogenase&column=ki&startPg=0&Increment=50&submit=Search

> <PubChem CID>
67395094

> <PubChem SID>
172097787

$$$$

  Mrv2115 07222212352D          

 36 40  0  0  0  0            999 V2000
   -0.1712   -0.6979    0.0000 C   0  0  0  0  0  0  0  0  0  0  0  0
    0.6538   -0.6979    0.0000 C   0  0  0  0  0  0  0  0  0  0  0  0
    1.1387   -0.0305    0.0000 N   0  0  0  0  0  0  0  0  0  0  0  0
    1.9233   -0.2854    0.0000 C   0  0  0  0  0  0  0  0  0  0  0  0
    2.6378    0.1271    0.0000 C   0  0  0  0  0  0  0  0  0  0  0  0
    2.6378    0.9521    0.0000 C   0  0  0  0  0  0  0  0  0  0  0  0
    3.3523    1.3646    0.0000 O   0  0  0  0  0  0  0  0  0  0  0  0
    1.9233    1.3646    0.0000 O   0  0  0  0  0  0  0  0  0  0  0  0
    3.3523   -0.2854    0.0000 C   0  0  0  0  0  0  0  0  0  0  0  0
    3.3523   -1.1104    0.0000 C   0  0  0  0  0  0  0  0  0  0  0  0
    4.0668   -1.5229    0.0000 C   0  0  0  0  0  0  0  0  0  0  0  0
    4.7812   -1.1104    0.0000 C   0  0  0  0  0  0  0  0  0  0  0  0
    4.7812   -0.2854    0.0000 F   0  0  0  0  0  0  0  0  0  0  0  0
    5.4957   -1.5229    0.0000 C   0  0  0  0  0  0  0  0  0  0  0  0
    6.2102   -1.1104    0.0000 F   0  0  0  0  0  0  0  0  0  0  0  0
    5.4957   -2.3479    0.0000 C   0  0  0  0  0  0  0  0  0  0  0  0
    6.2102   -2.7604    0.0000 C   0  0  0  0  0  0  0  0  0  0  0  0
    6.9246   -2.3479    0.0000 C   0  0  0  0  0  0  0  0  0  0  0  0
    7.6391   -2.7604    0.0000 C   0  0  0  0  0  0  0  0  0  0  0  0
    7.6391   -3.5854    0.0000 C   0  0  0  0  0  0  0  0  0  0  0  0
    6.9246   -3.9979    0.0000 C   0  0  0  0  0  0  0  0  0  0  0  0
    6.2102   -3.5854    0.0000 C   0  0  0  0  0  0  0  0  0  0  0  0
    5.4957   -3.9979    0.0000 C   0  0  0  0  0  0  0  0  0  0  0  0
    5.4957   -4.8229    0.0000 N   0  0  0  0  0  0  0  0  0  0  0  0
    6.2102   -5.2354    0.0000 C   0  0  0  0  0  0  0  0  0  0  0  0
    6.2102   -6.0604    0.0000 C   0  0  0  0  0  0  0  0  0  0  0  0
    5.4957   -6.4729    0.0000 C   0  0  0  0  0  0  0  0  0  0  0  0
    4.7812   -6.0604    0.0000 C   0  0  0  0  0  0  0  0  0  0  0  0
    4.7812   -5.2354    0.0000 C   0  0  0  0  0  0  0  0  0  0  0  0
    4.7812   -2.7604    0.0000 C   0  0  0  0  0  0  0  0  0  0  0  0
    4.7812   -3.5854    0.0000 F   0  0  0  0  0  0  0  0  0  0  0  0
    4.0668   -2.3479    0.0000 C   0  0  0  0  0  0  0  0  0  0  0  0
    3.3523   -2.7604    0.0000 F   0  0  0  0  0  0  0  0  0  0  0  0
    2.6378   -1.5229    0.0000 C   0  0  0  0  0  0  0  0  0  0  0  0
    1.9233   -1.1104    0.0000 C   0  0  0  0  0  0  0  0  0  0  0  0
    1.1387   -1.3654    0.0000 N   0  0  0  0  0  0  0  0  0  0  0  0
  1  2  1  0  0  0  0
  2  3  4  0  0  0  0
  3  4  4  0  0  0  0
  4  5  4  0  0  0  0
  5  6  1  0  0  0  0
  6  7  2  0  0  0  0
  6  8  1  0  0  0  0
  5  9  4  0  0  0  0
  9 10  4  0  0  0  0
 10 11  1  0  0  0  0
 11 12  4  0  0  0  0
 12 13  1  0  0  0  0
 12 14  4  0  0  0  0
 14 15  1  0  0  0  0
 14 16  4  0  0  0  0
 16 17  1  0  0  0  0
 17 18  4  0  0  0  0
 18 19  4  0  0  0  0
 19 20  4  0  0  0  0
 20 21  4  0  0  0  0
 21 22  4  0  0  0  0
 17 22  4  0  0  0  0
 22 23  1  0  0  0  0
 23 24  1  0  0  0  0
 24 25  1  0  0  0  0
 25 26  1  0  0  0  0
 26 27  1  0  0  0  0
 27 28  1  0  0  0  0
 28 29  1  0  0  0  0
 24 29  1  0  0  0  0
 16 30  4  0  0  0  0
 30 31  1  0  0  0  0
 30 32  4  0  0  0  0
 11 32  4  0  0  0  0
 32 33  1  0  0  0  0
 10 34  4  0  0  0  0
 34 35  4  0  0  0  0
  4 35  4  0  0  0  0
 35 36  4  0  0  0  0
  2 36  4  0  0  0  0
M  STY  1   1 DAT
M  SAL   1  1  36
M  SDT   1 MRV_IMPLICIT_H                                        
M  SDD   1     0.5304   -0.4125    DR    ALL  0       0  
M  SED   1 IMPL_H1
M  END
> <IC50(uM)>
0.0055

> <Outcome>
1.0

> <BindingDB ID>
1045600

> <BindingDB MonomerID>
501658

> <BindingDB Ligand Name>
US11028054, Example 53

> <Curation/DataSource>
US Patent

> <Article DOI>
?

> <PMID>
?

> <Patent Number>
US11028054

> <Authors>
Thunuguntla, SS; Hosahalli, S; Panigrahi, SK; Schwarz, M; Arit, M

> <Link to Ligand in BindingDB>
http://www.bindingdb.org/bind/chemsearch/marvin/MolStructure.jsp?monomerid=501658

> <Link to Ligand-Target Pair in BindingDB>
http://www.bindingdb.org/jsp/dbsearch/PrimarySearch_ki.jsp?energyterm=kJ/mole&tag=r21&monomerid=501658&enzyme=Dihydroorotate+dehydrogenase&column=ki&startPg=0&Increment=50&submit=Search

> <PubChem CID>
?

> <PubChem SID>
?

$$$$

  Mrv2115 07222212352D          

 30 33  0  0  0  0            999 V2000
   -2.1434   -3.7125    0.0000 O   0  0  0  0  0  0  0  0  0  0  0  0
   -2.1434   -2.8875    0.0000 C   0  0  0  0  0  0  0  0  0  0  0  0
   -2.8579   -2.4750    0.0000 O   0  0  0  0  0  0  0  0  0  0  0  0
   -1.4289   -2.4750    0.0000 C   0  0  0  0  0  0  0  0  0  0  0  0
   -1.4289   -1.6500    0.0000 C   0  0  0  0  0  0  0  0  0  0  0  0
   -0.7145   -1.2375    0.0000 C   0  0  0  0  0  0  0  0  0  0  0  0
    0.0000   -1.6500    0.0000 C   0  0  0  0  0  0  0  0  0  0  0  0
    0.7145   -1.2375    0.0000 C   0  0  0  0  0  0  0  0  0  0  0  0
    0.7145   -0.4125    0.0000 C   0  0  0  0  0  0  0  0  0  0  0  0
    1.4289    0.0000    0.0000 C   0  0  0  0  0  0  0  0  0  0  0  0
    2.1434   -0.4125    0.0000 C   0  0  0  0  0  0  0  0  0  0  0  0
    2.8579    0.0000    0.0000 N   0  0  0  0  0  0  0  0  0  0  0  0
    3.5724   -0.4125    0.0000 C   0  0  0  0  0  0  0  0  0  0  0  0
    4.2868   -0.0000    0.0000 C   0  0  0  0  0  0  0  0  0  0  0  0
    4.2868    0.8250    0.0000 C   0  0  0  0  0  0  0  0  0  0  0  0
    5.0013    1.2375    0.0000 C   0  0  0  0  0  0  0  0  0  0  0  0
    5.7158    0.8250    0.0000 C   0  0  0  0  0  0  0  0  0  0  0  0
    6.4302    1.2375    0.0000 Cl  0  0  0  0  0  0  0  0  0  0  0  0
    5.7158   -0.0000    0.0000 C   0  0  0  0  0  0  0  0  0  0  0  0
    5.0013   -0.4125    0.0000 C   0  0  0  0  0  0  0  0  0  0  0  0
    3.5724   -1.2375    0.0000 C   0  0  0  0  0  0  0  0  0  0  0  0
    4.2868   -1.6500    0.0000 O   0  0  0  0  0  0  0  0  0  0  0  0
    2.8579   -1.6500    0.0000 C   0  0  0  0  0  0  0  0  0  0  0  0
    2.8579   -2.4750    0.0000 C   0  0  0  0  0  0  0  0  0  0  0  0
    2.1434   -2.8875    0.0000 O   0  0  0  0  0  0  0  0  0  0  0  0
    3.5724   -2.8875    0.0000 O   0  0  0  0  0  0  0  0  0  0  0  0
    2.1434   -1.2375    0.0000 C   0  0  0  0  0  0  0  0  0  0  0  0
    1.4289   -1.6500    0.0000 C   0  0  0  0  0  0  0  0  0  0  0  0
    0.0000   -2.4750    0.0000 C   0  0  0  0  0  0  0  0  0  0  0  0
   -0.7145   -2.8875    0.0000 C   0  0  0  0  0  0  0  0  0  0  0  0
  1  2  2  0  0  0  0
  2  3  1  0  0  0  0
  2  4  1  0  0  0  0
  4  5  4  0  0  0  0
  5  6  4  0  0  0  0
  6  7  4  0  0  0  0
  7  8  1  0  0  0  0
  8  9  4  0  0  0  0
  9 10  4  0  0  0  0
 10 11  4  0  0  0  0
 11 12  4  0  0  0  0
 12 13  4  0  0  0  0
 13 14  1  0  0  0  0
 14 15  4  0  0  0  0
 15 16  4  0  0  0  0
 16 17  4  0  0  0  0
 17 18  1  0  0  0  0
 17 19  4  0  0  0  0
 19 20  4  0  0  0  0
 14 20  4  0  0  0  0
 13 21  4  0  0  0  0
 21 22  1  0  0  0  0
 21 23  4  0  0  0  0
 23 24  1  0  0  0  0
 24 25  2  0  0  0  0
 24 26  1  0  0  0  0
 23 27  4  0  0  0  0
 11 27  4  0  0  0  0
 27 28  4  0  0  0  0
  8 28  4  0  0  0  0
  7 29  4  0  0  0  0
 29 30  4  0  0  0  0
  4 30  4  0  0  0  0
M  END
> <IC50(uM)>
135.0

> <Outcome>
0.0

> <BindingDB ID>
50841914

> <BindingDB MonomerID>
50201941

> <BindingDB Ligand Name>
6-(4-carboxyphenyl)-2-(4-chlorophenyl)-3-hydroxyquinoline-4-carboxylic acid::CHEMBL216706

> <Curation/DataSource>
ChEMBL

> <Article DOI>
10.1021/jm0602256

> <PMID>
17201408

> <Patent Number>
?

> <Authors>
Kaila, N; Janz, K; DeBernardo, S; Bedard, PW; Camphausen, RT; Tam, S; Tsao, DH; Keith, JC; Nickerson-Nutter, C; Shilling, A; Young-Sciame, R; Wang, Q

> <Link to Ligand in BindingDB>
http://www.bindingdb.org/bind/chemsearch/marvin/MolStructure.jsp?monomerid=50201941

> <Link to Ligand-Target Pair in BindingDB>
http://www.bindingdb.org/jsp/dbsearch/PrimarySearch_ki.jsp?energyterm=kJ/mole&tag=r21&monomerid=50201941&enzyme=Dihydroorotate+dehydrogenase&column=ki&startPg=0&Increment=50&submit=Search

> <PubChem CID>
16099935

> <PubChem SID>
104081592

$$$$

  Mrv2115 07222212352D          

 21 22  0  0  0  0            999 V2000
    0.1067   -0.8866    0.0000 N   0  0  0  0  0  0  0  0  0  0  0  0
   -0.6078   -1.2991    0.0000 C   0  0  0  0  0  0  0  0  0  0  0  0
   -1.3222   -1.7116    0.0000 C   0  0  0  0  0  0  0  0  0  0  0  0
   -2.0367   -1.2991    0.0000 C   0  0  0  0  0  0  0  0  0  0  0  0
   -2.7512   -1.7116    0.0000 O   0  0  0  0  0  0  0  0  0  0  0  0
   -2.0367   -0.4741    0.0000 N   0  0  0  0  0  0  0  0  0  0  0  0
   -2.7512   -0.0616    0.0000 C   0  0  0  0  0  0  0  0  0  0  0  0
   -3.4656   -0.4741    0.0000 C   0  0  0  0  0  0  0  0  0  0  0  0
   -4.1801   -0.0616    0.0000 C   0  0  0  0  0  0  0  0  0  0  0  0
   -4.1801    0.7634    0.0000 C   0  0  0  0  0  0  0  0  0  0  0  0
   -4.8946    1.1759    0.0000 C   0  0  0  0  0  0  0  0  0  0  0  0
   -5.6091    1.5884    0.0000 F   0  0  0  0  0  0  0  0  0  0  0  0
   -5.3071    0.4614    0.0000 F   0  0  0  0  0  0  0  0  0  0  0  0
   -4.4821    1.8904    0.0000 F   0  0  0  0  0  0  0  0  0  0  0  0
   -3.4656    1.1759    0.0000 C   0  0  0  0  0  0  0  0  0  0  0  0
   -2.7512    0.7634    0.0000 C   0  0  0  0  0  0  0  0  0  0  0  0
   -1.3222   -2.5366    0.0000 C   0  0  0  0  0  0  0  0  0  0  0  0
   -0.6548   -3.0215    0.0000 C   0  0  0  0  0  0  0  0  0  0  0  0
   -0.9097   -3.8062    0.0000 C   0  0  0  0  0  0  0  0  0  0  0  0
   -1.7347   -3.8062    0.0000 C   0  0  0  0  0  0  0  0  0  0  0  0
   -1.9897   -3.0215    0.0000 O   0  0  0  0  0  0  0  0  0  0  0  0
  1  2  3  0  0  0  0
  2  3  1  0  0  0  0
  3  4  1  0  0  0  0
  4  5  2  0  0  0  0
  4  6  1  0  0  0  0
  6  7  1  0  0  0  0
  7  8  4  0  0  0  0
  8  9  4  0  0  0  0
  9 10  4  0  0  0  0
 10 11  1  0  0  0  0
 11 12  1  0  0  0  0
 11 13  1  0  0  0  0
 11 14  1  0  0  0  0
 10 15  4  0  0  0  0
 15 16  4  0  0  0  0
  7 16  4  0  0  0  0
  3 17  2  0  0  0  0
 17 18  1  0  0  0  0
 18 19  1  0  0  0  0
 19 20  1  0  0  0  0
 20 21  1  0  0  0  0
 17 21  1  0  0  0  0
M  END
> <IC50(uM)>
50.0

> <Outcome>
0.0

> <BindingDB ID>
176943

> <BindingDB MonomerID>
85305

> <BindingDB Ligand Name>
Tetrahydrofuranyl derivative, 7 (Z)

> <Curation/DataSource>
Curated from the literature by BindingDB

> <Article DOI>
?

> <PMID>
?

> <Patent Number>
?

> <Authors>
Papagergiou, C; Zurini, M; Weber, HP; Borer, X

> <Link to Ligand in BindingDB>
http://www.bindingdb.org/bind/chemsearch/marvin/MolStructure.jsp?monomerid=85305

> <Link to Ligand-Target Pair in BindingDB>
http://www.bindingdb.org/jsp/dbsearch/PrimarySearch_ki.jsp?energyterm=kJ/mole&tag=r21&monomerid=85305&enzyme=Dihydroorotate+dehydrogenase&column=ki&startPg=0&Increment=50&submit=Search

> <PubChem CID>
15363542

> <PubChem SID>
136351405

$$$$

  Mrv2115 07222212352D          

 37 41  0  0  0  0            999 V2000
   -9.2462   -3.5558    0.0000 C   0  0  0  0  0  0  0  0  0  0  0  0
   -8.8337   -2.8414    0.0000 C   0  0  0  0  0  0  0  0  0  0  0  0
   -9.2462   -2.1269    0.0000 O   0  0  0  0  0  0  0  0  0  0  0  0
   -8.0087   -2.8414    0.0000 N   0  0  0  0  0  0  0  0  0  0  0  0
   -7.5962   -2.1269    0.0000 C   0  0  0  0  0  0  0  0  0  0  0  0
   -8.0087   -1.4124    0.0000 C   0  0  0  0  0  0  0  0  0  0  0  0
   -7.5962   -0.6979    0.0000 C   0  0  0  0  0  0  0  0  0  0  0  0
   -6.7712   -0.6979    0.0000 C   0  0  0  0  0  0  0  0  0  0  0  0
   -6.3587   -1.4124    0.0000 C   0  0  0  0  0  0  0  0  0  0  0  0
   -5.5337   -1.4124    0.0000 C   0  0  0  0  0  0  0  0  0  0  0  0
   -5.1212   -0.6979    0.0000 O   0  0  0  0  0  0  0  0  0  0  0  0
   -4.2962   -0.6979    0.0000 C   0  0  0  0  0  0  0  0  0  0  0  0
   -3.8837    0.0165    0.0000 C   0  0  0  0  0  0  0  0  0  0  0  0
   -3.0587    0.0165    0.0000 C   0  0  0  0  0  0  0  0  0  0  0  0
   -2.6462   -0.6979    0.0000 C   0  0  0  0  0  0  0  0  0  0  0  0
   -1.8212   -0.6979    0.0000 C   0  0  0  0  0  0  0  0  0  0  0  0
   -1.4087    0.0165    0.0000 C   0  0  0  0  0  0  0  0  0  0  0  0
   -0.5837    0.0165    0.0000 C   0  0  0  0  0  0  0  0  0  0  0  0
   -0.1712   -0.6979    0.0000 C   0  0  0  0  0  0  0  0  0  0  0  0
    0.6538   -0.6979    0.0000 C   0  0  0  0  0  0  0  0  0  0  0  0
    1.1387   -0.0305    0.0000 N   0  0  0  0  0  0  0  0  0  0  0  0
    1.9233   -0.2854    0.0000 C   0  0  0  0  0  0  0  0  0  0  0  0
    2.6378    0.1271    0.0000 C   0  0  0  0  0  0  0  0  0  0  0  0
    2.6378    0.9521    0.0000 C   0  0  0  0  0  0  0  0  0  0  0  0
    1.9233    1.3646    0.0000 O   0  0  0  0  0  0  0  0  0  0  0  0
    3.3523    1.3646    0.0000 O   0  0  0  0  0  0  0  0  0  0  0  0
    3.3523   -0.2854    0.0000 C   0  0  0  0  0  0  0  0  0  0  0  0
    3.3523   -1.1104    0.0000 C   0  0  0  0  0  0  0  0  0  0  0  0
    4.0668   -1.5229    0.0000 C   0  0  0  0  0  0  0  0  0  0  0  0
    2.6378   -1.5229    0.0000 C   0  0  0  0  0  0  0  0  0  0  0  0
    1.9233   -1.1104    0.0000 C   0  0  0  0  0  0  0  0  0  0  0  0
    1.1387   -1.3654    0.0000 N   0  0  0  0  0  0  0  0  0  0  0  0
   -0.5837   -1.4124    0.0000 C   0  0  0  0  0  0  0  0  0  0  0  0
   -1.4087   -1.4124    0.0000 C   0  0  0  0  0  0  0  0  0  0  0  0
   -3.0587   -1.4124    0.0000 C   0  0  0  0  0  0  0  0  0  0  0  0
   -3.8837   -1.4124    0.0000 C   0  0  0  0  0  0  0  0  0  0  0  0
   -6.7712   -2.1269    0.0000 C   0  0  0  0  0  0  0  0  0  0  0  0
  1  2  1  0  0  0  0
  2  3  2  0  0  0  0
  2  4  1  0  0  0  0
  4  5  1  0  0  0  0
  5  6  4  0  0  0  0
  6  7  4  0  0  0  0
  7  8  4  0  0  0  0
  8  9  4  0  0  0  0
  9 10  1  0  0  0  0
 10 11  1  0  0  0  0
 11 12  1  0  0  0  0
 12 13  4  0  0  0  0
 13 14  4  0  0  0  0
 14 15  4  0  0  0  0
 15 16  1  0  0  0  0
 16 17  4  0  0  0  0
 17 18  4  0  0  0  0
 18 19  4  0  0  0  0
 19 20  1  0  0  0  0
 20 21  4  0  0  0  0
 21 22  4  0  0  0  0
 22 23  4  0  0  0  0
 23 24  1  0  0  0  0
 24 25  2  0  0  0  0
 24 26  1  0  0  0  0
 23 27  4  0  0  0  0
 27 28  4  0  0  0  0
 28 29  1  0  0  0  0
 28 30  4  0  0  0  0
 30 31  4  0  0  0  0
 22 31  4  0  0  0  0
 31 32  4  0  0  0  0
 20 32  4  0  0  0  0
 19 33  4  0  0  0  0
 33 34  4  0  0  0  0
 16 34  4  0  0  0  0
 15 35  4  0  0  0  0
 35 36  4  0  0  0  0
 12 36  4  0  0  0  0
  9 37  4  0  0  0  0
  5 37  4  0  0  0  0
M  STY  1   1 DAT
M  SAL   1  1  32
M  SDT   1 MRV_IMPLICIT_H                                        
M  SDD   1     0.5304   -0.4125    DR    ALL  0       0  
M  SED   1 IMPL_H1
M  END
> <IC50(uM)>
0.028

> <Outcome>
1.0

> <BindingDB ID>
50358207

> <BindingDB MonomerID>
50096199

> <BindingDB Ligand Name>
CHEMBL3593805

> <Curation/DataSource>
ChEMBL

> <Article DOI>
10.1016/j.bmc.2015.05.051

> <PMID>
26088338

> <Patent Number>
?

> <Authors>
Abdullah, I; Chee, CF; Lee, YK; Thunuguntla, SS; Satish Reddy, K; Nellore, K; Antony, T; Verma, J; Mun, KW; Othman, S; Subramanya, H; Rahman, NA

> <Link to Ligand in BindingDB>
http://www.bindingdb.org/bind/chemsearch/marvin/MolStructure.jsp?monomerid=50096199

> <Link to Ligand-Target Pair in BindingDB>
http://www.bindingdb.org/jsp/dbsearch/PrimarySearch_ki.jsp?energyterm=kJ/mole&tag=r21&monomerid=50096199&enzyme=Dihydroorotate+dehydrogenase&column=ki&startPg=0&Increment=50&submit=Search

> <PubChem CID>
122182180

> <PubChem SID>
103993766

$$$$

  Mrv2115 07222212352D          

 36 40  0  0  0  0            999 V2000
   -0.1712   -0.6979    0.0000 C   0  0  0  0  0  0  0  0  0  0  0  0
    0.6538   -0.6979    0.0000 C   0  0  0  0  0  0  0  0  0  0  0  0
    1.1387   -0.0305    0.0000 N   0  0  0  0  0  0  0  0  0  0  0  0
    1.9233   -0.2854    0.0000 C   0  0  0  0  0  0  0  0  0  0  0  0
    2.6378    0.1271    0.0000 C   0  0  0  0  0  0  0  0  0  0  0  0
    2.6378    0.9521    0.0000 C   0  0  0  0  0  0  0  0  0  0  0  0
    3.3523    1.3646    0.0000 O   0  0  0  0  0  0  0  0  0  0  0  0
    1.9233    1.3646    0.0000 O   0  0  0  0  0  0  0  0  0  0  0  0
    3.3523   -0.2854    0.0000 C   0  0  0  0  0  0  0  0  0  0  0  0
    3.3523   -1.1104    0.0000 C   0  0  0  0  0  0  0  0  0  0  0  0
    4.0668   -1.5229    0.0000 C   0  0  0  0  0  0  0  0  0  0  0  0
    4.7812   -1.1104    0.0000 C   0  0  0  0  0  0  0  0  0  0  0  0
    4.7812   -0.2854    0.0000 F   0  0  0  0  0  0  0  0  0  0  0  0
    5.4957   -1.5229    0.0000 C   0  0  0  0  0  0  0  0  0  0  0  0
    6.2102   -1.1104    0.0000 F   0  0  0  0  0  0  0  0  0  0  0  0
    5.4957   -2.3479    0.0000 C   0  0  0  0  0  0  0  0  0  0  0  0
    6.2102   -2.7604    0.0000 C   0  0  0  0  0  0  0  0  0  0  0  0
    6.9246   -2.3479    0.0000 C   0  0  0  0  0  0  0  0  0  0  0  0
    7.6391   -2.7604    0.0000 C   0  0  0  0  0  0  0  0  0  0  0  0
    7.6391   -3.5854    0.0000 C   0  0  0  0  0  0  0  0  0  0  0  0
    8.3536   -3.9979    0.0000 C   0  0  0  0  0  0  0  0  0  0  0  0
    8.3536   -4.8229    0.0000 N   0  0  0  0  0  0  0  0  0  0  0  0
    9.0681   -5.2354    0.0000 C   0  0  0  0  0  0  0  0  0  0  0  0
    9.0681   -6.0604    0.0000 C   0  0  0  0  0  0  0  0  0  0  0  0
    8.3536   -6.4729    0.0000 O   0  0  0  0  0  0  0  0  0  0  0  0
    7.6391   -6.0604    0.0000 C   0  0  0  0  0  0  0  0  0  0  0  0
    7.6391   -5.2354    0.0000 C   0  0  0  0  0  0  0  0  0  0  0  0
    6.9246   -3.9979    0.0000 C   0  0  0  0  0  0  0  0  0  0  0  0
    6.2102   -3.5854    0.0000 C   0  0  0  0  0  0  0  0  0  0  0  0
    4.7812   -2.7604    0.0000 C   0  0  0  0  0  0  0  0  0  0  0  0
    4.7812   -3.5854    0.0000 F   0  0  0  0  0  0  0  0  0  0  0  0
    4.0668   -2.3479    0.0000 C   0  0  0  0  0  0  0  0  0  0  0  0
    3.3523   -2.7604    0.0000 F   0  0  0  0  0  0  0  0  0  0  0  0
    2.6378   -1.5229    0.0000 C   0  0  0  0  0  0  0  0  0  0  0  0
    1.9233   -1.1104    0.0000 C   0  0  0  0  0  0  0  0  0  0  0  0
    1.1387   -1.3654    0.0000 N   0  0  0  0  0  0  0  0  0  0  0  0
  1  2  1  0  0  0  0
  2  3  4  0  0  0  0
  3  4  4  0  0  0  0
  4  5  4  0  0  0  0
  5  6  1  0  0  0  0
  6  7  2  0  0  0  0
  6  8  1  0  0  0  0
  5  9  4  0  0  0  0
  9 10  4  0  0  0  0
 10 11  1  0  0  0  0
 11 12  4  0  0  0  0
 12 13  1  0  0  0  0
 12 14  4  0  0  0  0
 14 15  1  0  0  0  0
 14 16  4  0  0  0  0
 16 17  1  0  0  0  0
 17 18  4  0  0  0  0
 18 19  4  0  0  0  0
 19 20  4  0  0  0  0
 20 21  1  0  0  0  0
 21 22  1  0  0  0  0
 22 23  1  0  0  0  0
 23 24  1  0  0  0  0
 24 25  1  0  0  0  0
 25 26  1  0  0  0  0
 26 27  1  0  0  0  0
 22 27  1  0  0  0  0
 20 28  4  0  0  0  0
 28 29  4  0  0  0  0
 17 29  4  0  0  0  0
 16 30  4  0  0  0  0
 30 31  1  0  0  0  0
 30 32  4  0  0  0  0
 11 32  4  0  0  0  0
 32 33  1  0  0  0  0
 10 34  4  0  0  0  0
 34 35  4  0  0  0  0
  4 35  4  0  0  0  0
 35 36  4  0  0  0  0
  2 36  4  0  0  0  0
M  STY  1   1 DAT
M  SAL   1  1  36
M  SDT   1 MRV_IMPLICIT_H                                        
M  SDD   1     0.5304   -0.4125    DR    ALL  0       0  
M  SED   1 IMPL_H1
M  END
> <IC50(uM)>
0.0325

> <Outcome>
1.0

> <BindingDB ID>
1045611; 51390145

> <BindingDB MonomerID>
501669

> <BindingDB Ligand Name>
US11028054, Example 84

> <Curation/DataSource>
US Patent; ChEMBL

> <Article DOI>
?

> <PMID>
?; 33214811

> <Patent Number>
US11028054; ?

> <Authors>
Thunuguntla, SS; Hosahalli, S; Panigrahi, SK; Schwarz, M; Arit, M; Abdel-Magid, AF

> <Link to Ligand in BindingDB>
http://www.bindingdb.org/bind/chemsearch/marvin/MolStructure.jsp?monomerid=501669

> <Link to Ligand-Target Pair in BindingDB>
http://www.bindingdb.org/jsp/dbsearch/PrimarySearch_ki.jsp?energyterm=kJ/mole&tag=r21&monomerid=501669&enzyme=Dihydroorotate+dehydrogenase&column=ki&startPg=0&Increment=50&submit=Search

> <PubChem CID>
?; 146580985

> <PubChem SID>
?; 459087001

$$$$

  Mrv2115 07222212352D          

 21 24  0  0  0  0            999 V2000
    6.3569    1.1104    0.0000 C   0  0  0  0  0  0  0  0  0  0  0  0
    5.6424    0.6979    0.0000 C   0  0  0  0  0  0  0  0  0  0  0  0
    5.6424   -0.1271    0.0000 N   0  0  0  0  0  0  0  0  0  0  0  0
    4.9279   -0.5396    0.0000 C   0  0  0  0  0  0  0  0  0  0  0  0
    4.9279   -1.3646    0.0000 N   0  0  0  0  0  0  0  0  0  0  0  0
    4.2135   -1.7771    0.0000 C   0  0  0  0  0  0  0  0  0  0  0  0
    4.2135   -2.6021    0.0000 C   0  0  0  0  0  0  0  0  0  0  0  0
    3.4990   -3.0146    0.0000 C   0  0  0  0  0  0  0  0  0  0  0  0
    2.7845   -2.6021    0.0000 C   0  0  0  0  0  0  0  0  0  0  0  0
    2.0701   -3.0146    0.0000 C   0  0  0  0  0  0  0  0  0  0  0  0
    1.3556   -2.6021    0.0000 C   0  0  0  0  0  0  0  0  0  0  0  0
    1.3556   -1.7771    0.0000 C   0  0  0  0  0  0  0  0  0  0  0  0
    2.0701   -1.3646    0.0000 C   0  0  0  0  0  0  0  0  0  0  0  0
    2.7845   -1.7771    0.0000 C   0  0  0  0  0  0  0  0  0  0  0  0
    3.4990   -1.3646    0.0000 C   0  0  0  0  0  0  0  0  0  0  0  0
    4.2135   -0.1271    0.0000 C   0  0  0  0  0  0  0  0  0  0  0  0
    3.4288   -0.3820    0.0000 N   0  0  0  0  0  0  0  0  0  0  0  0
    2.9439    0.2854    0.0000 C   0  0  0  0  0  0  0  0  0  0  0  0
    3.4288    0.9529    0.0000 N   0  0  0  0  0  0  0  0  0  0  0  0
    4.2135    0.6979    0.0000 C   0  0  0  0  0  0  0  0  0  0  0  0
    4.9279    1.1104    0.0000 N   0  0  0  0  0  0  0  0  0  0  0  0
  1  2  1  0  0  0  0
  2  3  4  0  0  0  0
  3  4  4  0  0  0  0
  4  5  1  0  0  0  0
  5  6  1  0  0  0  0
  6  7  4  0  0  0  0
  7  8  4  0  0  0  0
  8  9  4  0  0  0  0
  9 10  4  0  0  0  0
 10 11  4  0  0  0  0
 11 12  4  0  0  0  0
 12 13  4  0  0  0  0
 13 14  4  0  0  0  0
  9 14  4  0  0  0  0
 14 15  4  0  0  0  0
  6 15  4  0  0  0  0
  4 16  4  0  0  0  0
 16 17  4  0  0  0  0
 17 18  4  0  0  0  0
 18 19  4  0  0  0  0
 19 20  4  0  0  0  0
 16 20  4  0  0  0  0
 20 21  4  0  0  0  0
  2 21  4  0  0  0  0
M  STY  1   1 DAT
M  SAL   1  1  17
M  SDT   1 MRV_IMPLICIT_H                                        
M  SDD   1     0.5304   -0.4125    DR    ALL  0       0  
M  SED   1 IMPL_H1
M  END
> <IC50(uM)>
100.0

> <Outcome>
0.0

> <BindingDB ID>
50967537

> <BindingDB MonomerID>
50396724

> <BindingDB Ligand Name>
CHEMBL2172233

> <Curation/DataSource>
ChEMBL

> <Article DOI>
10.1021/jm300351w

> <PMID>
22877245

> <Patent Number>
?

> <Authors>
Marwaha, A; White, J; El Mazouni, F; Creason, SA; Kokkonda, S; Buckner, FS; Charman, SA; Phillips, MA; Rathod, PK

> <Link to Ligand in BindingDB>
http://www.bindingdb.org/bind/chemsearch/marvin/MolStructure.jsp?monomerid=50396724

> <Link to Ligand-Target Pair in BindingDB>
http://www.bindingdb.org/jsp/dbsearch/PrimarySearch_ki.jsp?energyterm=kJ/mole&tag=r21&monomerid=50396724&enzyme=Dihydroorotate+dehydrogenase&column=ki&startPg=0&Increment=50&submit=Search

> <PubChem CID>
57825994

> <PubChem SID>
163345748

$$$$

  Mrv2115 07222212352D          

 33 37  0  0  0  0            999 V2000
    4.0668    2.3479    0.0000 C   0  0  0  0  0  0  0  0  0  0  0  0
    3.3523    1.9354    0.0000 C   0  0  0  0  0  0  0  0  0  0  0  0
    3.3523    1.1104    0.0000 C   0  0  0  0  0  0  0  0  0  0  0  0
    2.6378    0.6979    0.0000 C   0  0  0  0  0  0  0  0  0  0  0  0
    2.6378   -0.1271    0.0000 C   0  0  0  0  0  0  0  0  0  0  0  0
    1.9233   -0.5396    0.0000 O   0  0  0  0  0  0  0  0  0  0  0  0
    3.3523   -0.5396    0.0000 O   0  0  0  0  0  0  0  0  0  0  0  0
    1.9233    1.1104    0.0000 C   0  0  0  0  0  0  0  0  0  0  0  0
    1.1387    0.8555    0.0000 N   0  0  0  0  0  0  0  0  0  0  0  0
    0.6538    1.5229    0.0000 C   0  0  0  0  0  0  0  0  0  0  0  0
   -0.1712    1.5229    0.0000 C   0  0  0  0  0  0  0  0  0  0  0  0
   -0.5837    0.8085    0.0000 C   0  0  0  0  0  0  0  0  0  0  0  0
   -1.4087    0.8085    0.0000 C   0  0  0  0  0  0  0  0  0  0  0  0
   -1.8212    1.5229    0.0000 C   0  0  0  0  0  0  0  0  0  0  0  0
   -2.6462    1.5229    0.0000 C   0  0  0  0  0  0  0  0  0  0  0  0
   -3.0587    0.8085    0.0000 C   0  0  0  0  0  0  0  0  0  0  0  0
   -3.8837    0.8085    0.0000 C   0  0  0  0  0  0  0  0  0  0  0  0
   -4.2962    1.5229    0.0000 C   0  0  0  0  0  0  0  0  0  0  0  0
   -5.1212    1.5229    0.0000 O   0  0  0  0  0  0  0  0  0  0  0  0
   -5.5337    0.8085    0.0000 C   0  0  0  0  0  0  0  0  0  0  0  0
   -6.3587    0.8085    0.0000 C   0  0  0  0  0  0  0  0  0  0  0  0
   -6.7712    0.0940    0.0000 C   0  0  0  0  0  0  0  0  0  0  0  0
   -7.5962    0.0940    0.0000 C   0  0  0  0  0  0  0  0  0  0  0  0
   -8.0087    0.8085    0.0000 C   0  0  0  0  0  0  0  0  0  0  0  0
   -7.5962    1.5229    0.0000 C   0  0  0  0  0  0  0  0  0  0  0  0
   -6.7712    1.5229    0.0000 N   0  0  0  0  0  0  0  0  0  0  0  0
   -3.8837    2.2374    0.0000 C   0  0  0  0  0  0  0  0  0  0  0  0
   -3.0587    2.2374    0.0000 C   0  0  0  0  0  0  0  0  0  0  0  0
   -1.4087    2.2374    0.0000 C   0  0  0  0  0  0  0  0  0  0  0  0
   -0.5837    2.2374    0.0000 C   0  0  0  0  0  0  0  0  0  0  0  0
    1.1387    2.1904    0.0000 N   0  0  0  0  0  0  0  0  0  0  0  0
    1.9233    1.9354    0.0000 C   0  0  0  0  0  0  0  0  0  0  0  0
    2.6378    2.3479    0.0000 C   0  0  0  0  0  0  0  0  0  0  0  0
  1  2  1  0  0  0  0
  2  3  4  0  0  0  0
  3  4  4  0  0  0  0
  4  5  1  0  0  0  0
  5  6  2  0  0  0  0
  5  7  1  0  0  0  0
  4  8  4  0  0  0  0
  8  9  4  0  0  0  0
  9 10  4  0  0  0  0
 10 11  1  0  0  0  0
 11 12  4  0  0  0  0
 12 13  4  0  0  0  0
 13 14  4  0  0  0  0
 14 15  1  0  0  0  0
 15 16  4  0  0  0  0
 16 17  4  0  0  0  0
 17 18  4  0  0  0  0
 18 19  1  0  0  0  0
 19 20  1  0  0  0  0
 20 21  1  0  0  0  0
 21 22  4  0  0  0  0
 22 23  4  0  0  0  0
 23 24  4  0  0  0  0
 24 25  4  0  0  0  0
 25 26  4  0  0  0  0
 21 26  4  0  0  0  0
 18 27  4  0  0  0  0
 27 28  4  0  0  0  0
 15 28  4  0  0  0  0
 14 29  4  0  0  0  0
 29 30  4  0  0  0  0
 11 30  4  0  0  0  0
 10 31  4  0  0  0  0
 31 32  4  0  0  0  0
  8 32  4  0  0  0  0
 32 33  4  0  0  0  0
  2 33  4  0  0  0  0
M  STY  1   1 DAT
M  SAL   1  1  31
M  SDT   1 MRV_IMPLICIT_H                                        
M  SDD   1     0.5304   -0.4125    DR    ALL  0       0  
M  SED   1 IMPL_H1
M  END
> <IC50(uM)>
2.23

> <Outcome>
0.0

> <BindingDB ID>
297821

> <BindingDB MonomerID>
155477

> <BindingDB Ligand Name>
US9006454, I119

> <Curation/DataSource>
US Patent

> <Article DOI>
?

> <PMID>
?

> <Patent Number>
US9006454

> <Authors>
Thunuguntla, SS; Subramanya, H; Kunnam, SR; Sanivaru Vijay, SR; Bingi, C; Kusanur, R; Schwarz, M; Arlt, M

> <Link to Ligand in BindingDB>
http://www.bindingdb.org/bind/chemsearch/marvin/MolStructure.jsp?monomerid=155477

> <Link to Ligand-Target Pair in BindingDB>
http://www.bindingdb.org/jsp/dbsearch/PrimarySearch_ki.jsp?energyterm=kJ/mole&tag=r21&monomerid=155477&enzyme=Dihydroorotate+dehydrogenase&column=ki&startPg=0&Increment=50&submit=Search

> <PubChem CID>
58073895

> <PubChem SID>
253658414

$$$$

  Mrv2115 07222212352D          

 17 18  0  0  0  0            999 V2000
    1.4289    0.0000    0.0000 O   0  0  0  0  0  0  0  0  0  0  0  0
    2.1434   -0.4125    0.0000 C   0  0  0  0  0  0  0  0  0  0  0  0
    2.8579    0.0000    0.0000 O   0  0  0  0  0  0  0  0  0  0  0  0
    2.1434   -1.2375    0.0000 C   0  0  0  0  0  0  0  0  0  0  0  0
    1.4289   -1.6500    0.0000 C   0  0  0  0  0  0  0  0  0  0  0  0
    1.4289   -2.4750    0.0000 C   0  0  0  0  0  0  0  0  0  0  0  0
    2.1434   -2.8875    0.0000 C   0  0  0  0  0  0  0  0  0  0  0  0
    2.8579   -2.4750    0.0000 N   0  0  0  0  0  0  0  0  0  0  0  0
    2.8579   -1.6500    0.0000 C   0  0  0  0  0  0  0  0  0  0  0  0
    3.5724   -1.2375    0.0000 O   0  0  0  0  0  0  0  0  0  0  0  0
    4.2868   -1.6500    0.0000 C   0  0  0  0  0  0  0  0  0  0  0  0
    5.0013   -1.2375    0.0000 C   0  0  0  0  0  0  0  0  0  0  0  0
    5.7158   -1.6500    0.0000 C   0  0  0  0  0  0  0  0  0  0  0  0
    5.7158   -2.4750    0.0000 C   0  0  0  0  0  0  0  0  0  0  0  0
    6.4302   -2.8875    0.0000 Cl  0  0  0  0  0  0  0  0  0  0  0  0
    5.0013   -2.8875    0.0000 C   0  0  0  0  0  0  0  0  0  0  0  0
    4.2868   -2.4750    0.0000 C   0  0  0  0  0  0  0  0  0  0  0  0
  1  2  2  0  0  0  0
  2  3  1  0  0  0  0
  2  4  1  0  0  0  0
  4  5  4  0  0  0  0
  5  6  4  0  0  0  0
  6  7  4  0  0  0  0
  7  8  4  0  0  0  0
  8  9  4  0  0  0  0
  4  9  4  0  0  0  0
  9 10  1  0  0  0  0
 10 11  1  0  0  0  0
 11 12  4  0  0  0  0
 12 13  4  0  0  0  0
 13 14  4  0  0  0  0
 14 15  1  0  0  0  0
 14 16  4  0  0  0  0
 16 17  4  0  0  0  0
 11 17  4  0  0  0  0
M  END
> <IC50(uM)>
20.0

> <Outcome>
0.0

> <BindingDB ID>
50527779

> <BindingDB MonomerID>
50201623

> <BindingDB Ligand Name>
CHEMBL3891124

> <Curation/DataSource>
ChEMBL

> <Article DOI>
10.1021/acsmedchemlett.6b00316

> <PMID>
27994748

> <Patent Number>
?

> <Authors>
Lewis, TA; Sykes, DB; Law, JM; Mu??oz, B; Rustiguel, JK; Nonato, MC; Scadden, DT; Schreiber, SL

> <Link to Ligand in BindingDB>
http://www.bindingdb.org/bind/chemsearch/marvin/MolStructure.jsp?monomerid=50201623

> <Link to Ligand-Target Pair in BindingDB>
http://www.bindingdb.org/jsp/dbsearch/PrimarySearch_ki.jsp?energyterm=kJ/mole&tag=r21&monomerid=50201623&enzyme=Dihydroorotate+dehydrogenase&column=ki&startPg=0&Increment=50&submit=Search

> <PubChem CID>
609454

> <PubChem SID>
375979411

$$$$

  Mrv2115 07222212352D          

 22 24  0  0  0  0            999 V2000
    0.7145   -6.1875    0.0000 C   0  0  0  0  0  0  0  0  0  0  0  0
    0.7145   -5.3625    0.0000 O   0  0  0  0  0  0  0  0  0  0  0  0
    0.0000   -4.9500    0.0000 C   0  0  0  0  0  0  0  0  0  0  0  0
   -0.7145   -5.3625    0.0000 C   0  0  0  0  0  0  0  0  0  0  0  0
   -1.4289   -4.9500    0.0000 C   0  0  0  0  0  0  0  0  0  0  0  0
   -1.4289   -4.1250    0.0000 C   0  0  0  0  0  0  0  0  0  0  0  0
   -0.7145   -3.7125    0.0000 C   0  0  0  0  0  0  0  0  0  0  0  0
    0.0000   -4.1250    0.0000 C   0  0  0  0  0  0  0  0  0  0  0  0
    0.7145   -3.7125    0.0000 N   0  0  0  0  0  0  0  0  0  0  0  0
    0.7145   -2.8875    0.0000 C   0  0  0  0  0  0  0  0  0  0  0  0
    0.0000   -2.4750    0.0000 O   0  0  0  0  0  0  0  0  0  0  0  0
    1.4289   -2.4750    0.0000 N   0  0  0  0  0  0  0  0  0  0  0  0
    1.4289   -1.6500    0.0000 C   0  0  0  0  0  0  0  0  0  0  0  0
    0.7145   -1.2375    0.0000 C   0  0  0  0  0  0  0  0  0  0  0  0
    0.7145   -0.4125    0.0000 C   0  0  0  0  0  0  0  0  0  0  0  0
    1.4289    0.0000    0.0000 C   0  0  0  0  0  0  0  0  0  0  0  0
    2.1434   -0.4125    0.0000 C   0  0  0  0  0  0  0  0  0  0  0  0
    2.8579    0.0000    0.0000 C   0  0  0  0  0  0  0  0  0  0  0  0
    3.5724   -0.4125    0.0000 C   0  0  0  0  0  0  0  0  0  0  0  0
    3.5724   -1.2375    0.0000 C   0  0  0  0  0  0  0  0  0  0  0  0
    2.8579   -1.6500    0.0000 C   0  0  0  0  0  0  0  0  0  0  0  0
    2.1434   -1.2375    0.0000 C   0  0  0  0  0  0  0  0  0  0  0  0
  1  2  1  0  0  0  0
  2  3  1  0  0  0  0
  3  4  4  0  0  0  0
  4  5  4  0  0  0  0
  5  6  4  0  0  0  0
  6  7  4  0  0  0  0
  7  8  4  0  0  0  0
  3  8  4  0  0  0  0
  8  9  1  0  0  0  0
  9 10  1  0  0  0  0
 10 11  2  0  0  0  0
 10 12  1  0  0  0  0
 12 13  1  0  0  0  0
 13 14  4  0  0  0  0
 14 15  4  0  0  0  0
 15 16  4  0  0  0  0
 16 17  4  0  0  0  0
 17 18  4  0  0  0  0
 18 19  4  0  0  0  0
 19 20  4  0  0  0  0
 20 21  4  0  0  0  0
 21 22  4  0  0  0  0
 13 22  4  0  0  0  0
 17 22  4  0  0  0  0
M  END
> <IC50(uM)>
112.0

> <Outcome>
0.0

> <BindingDB ID>
28105

> <BindingDB MonomerID>
15357

> <BindingDB Ligand Name>
3-(2-methoxyphenyl)-1-naphthalen-1-ylurea::ChemBridge compound no. 12

> <Curation/DataSource>
Curated from the literature by BindingDB

> <Article DOI>
10.1074/jbc.M501100200

> <PMID>
15795226

> <Patent Number>
?

> <Authors>
Baldwin, J; Michnoff, CH; Malmquist, NA; White, J; Roth, MG; Rathod, PK; Phillips, MA

> <Link to Ligand in BindingDB>
http://www.bindingdb.org/bind/chemsearch/marvin/MolStructure.jsp?monomerid=15357

> <Link to Ligand-Target Pair in BindingDB>
http://www.bindingdb.org/jsp/dbsearch/PrimarySearch_ki.jsp?energyterm=kJ/mole&tag=r21&monomerid=15357&enzyme=Dihydroorotate+Dehydrogenase+%28DHODH%29&column=ki&startPg=0&Increment=50&submit=Search

> <PubChem CID>
768067

> <PubChem SID>
46515657

$$$$

  Mrv2115 07222212352D          

 26 29  0  0  0  0            999 V2000
    4.0668    2.3479    0.0000 C   0  0  0  0  0  0  0  0  0  0  0  0
    3.3523    1.9354    0.0000 C   0  0  0  0  0  0  0  0  0  0  0  0
    3.3523    1.1104    0.0000 C   0  0  0  0  0  0  0  0  0  0  0  0
    2.6378    0.6979    0.0000 C   0  0  0  0  0  0  0  0  0  0  0  0
    2.6378   -0.1271    0.0000 C   0  0  0  0  0  0  0  0  0  0  0  0
    1.9233   -0.5396    0.0000 O   0  0  0  0  0  0  0  0  0  0  0  0
    3.3523   -0.5396    0.0000 O   0  0  0  0  0  0  0  0  0  0  0  0
    1.9233    1.1104    0.0000 C   0  0  0  0  0  0  0  0  0  0  0  0
    1.1387    0.8555    0.0000 N   0  0  0  0  0  0  0  0  0  0  0  0
    0.6538    1.5229    0.0000 C   0  0  0  0  0  0  0  0  0  0  0  0
   -0.1712    1.5229    0.0000 C   0  0  0  0  0  0  0  0  0  0  0  0
   -0.5837    0.8085    0.0000 C   0  0  0  0  0  0  0  0  0  0  0  0
   -1.4087    0.8085    0.0000 C   0  0  0  0  0  0  0  0  0  0  0  0
   -1.8212    1.5229    0.0000 C   0  0  0  0  0  0  0  0  0  0  0  0
   -2.6462    1.5229    0.0000 C   0  0  0  0  0  0  0  0  0  0  0  0
   -3.0587    0.8085    0.0000 C   0  0  0  0  0  0  0  0  0  0  0  0
   -3.8837    0.8085    0.0000 C   0  0  0  0  0  0  0  0  0  0  0  0
   -4.2962    1.5229    0.0000 C   0  0  0  0  0  0  0  0  0  0  0  0
   -3.8837    2.2374    0.0000 C   0  0  0  0  0  0  0  0  0  0  0  0
   -3.0587    2.2374    0.0000 C   0  0  0  0  0  0  0  0  0  0  0  0
   -1.4087    2.2374    0.0000 C   0  0  0  0  0  0  0  0  0  0  0  0
   -0.5837    2.2374    0.0000 C   0  0  0  0  0  0  0  0  0  0  0  0
   -0.1712    2.9519    0.0000 F   0  0  0  0  0  0  0  0  0  0  0  0
    1.1387    2.1904    0.0000 N   0  0  0  0  0  0  0  0  0  0  0  0
    1.9233    1.9354    0.0000 C   0  0  0  0  0  0  0  0  0  0  0  0
    2.6378    2.3479    0.0000 C   0  0  0  0  0  0  0  0  0  0  0  0
  1  2  1  0  0  0  0
  2  3  4  0  0  0  0
  3  4  4  0  0  0  0
  4  5  1  0  0  0  0
  5  6  2  0  0  0  0
  5  7  1  0  0  0  0
  4  8  4  0  0  0  0
  8  9  4  0  0  0  0
  9 10  4  0  0  0  0
 10 11  1  0  0  0  0
 11 12  4  0  0  0  0
 12 13  4  0  0  0  0
 13 14  4  0  0  0  0
 14 15  1  0  0  0  0
 15 16  4  0  0  0  0
 16 17  4  0  0  0  0
 17 18  4  0  0  0  0
 18 19  4  0  0  0  0
 19 20  4  0  0  0  0
 15 20  4  0  0  0  0
 14 21  4  0  0  0  0
 21 22  4  0  0  0  0
 11 22  4  0  0  0  0
 22 23  1  0  0  0  0
 10 24  4  0  0  0  0
 24 25  4  0  0  0  0
  8 25  4  0  0  0  0
 25 26  4  0  0  0  0
  2 26  4  0  0  0  0
M  STY  1   1 DAT
M  SAL   1  1   9
M  SDT   1 MRV_IMPLICIT_H                                        
M  SDD   1     0.5304   -0.4125    DR    ALL  0       0  
M  SED   1 IMPL_H1
M  END
> <IC50(uM)>
0.403

> <Outcome>
1.0

> <BindingDB ID>
297760

> <BindingDB MonomerID>
155416

> <BindingDB Ligand Name>
US9006454, I28

> <Curation/DataSource>
US Patent

> <Article DOI>
?

> <PMID>
?

> <Patent Number>
US9006454

> <Authors>
Thunuguntla, SS; Subramanya, H; Kunnam, SR; Sanivaru Vijay, SR; Bingi, C; Kusanur, R; Schwarz, M; Arlt, M

> <Link to Ligand in BindingDB>
http://www.bindingdb.org/bind/chemsearch/marvin/MolStructure.jsp?monomerid=155416

> <Link to Ligand-Target Pair in BindingDB>
http://www.bindingdb.org/jsp/dbsearch/PrimarySearch_ki.jsp?energyterm=kJ/mole&tag=r21&monomerid=155416&enzyme=Dihydroorotate+dehydrogenase&column=ki&startPg=0&Increment=50&submit=Search

> <PubChem CID>
58073874

> <PubChem SID>
253658353

$$$$

  Mrv2115 07222212352D          

 32 36  0  0  0  0            999 V2000
    0.8838   -2.1500    0.0000 C   0  0  0  0  0  0  0  0  0  0  0  0
    1.1387   -1.3654    0.0000 N   0  0  0  0  0  0  0  0  0  0  0  0
    0.6538   -0.6979    0.0000 N   0  0  0  0  0  0  0  0  0  0  0  0
    1.1387   -0.0305    0.0000 N   0  0  0  0  0  0  0  0  0  0  0  0
    1.9233   -0.2854    0.0000 C   0  0  0  0  0  0  0  0  0  0  0  0
    2.6378    0.1271    0.0000 C   0  0  0  0  0  0  0  0  0  0  0  0
    2.6378    0.9521    0.0000 C   0  0  0  0  0  0  0  0  0  0  0  0
    3.3523    1.3646    0.0000 O   0  0  0  0  0  0  0  0  0  0  0  0
    1.9233    1.3646    0.0000 O   0  0  0  0  0  0  0  0  0  0  0  0
    3.3523   -0.2854    0.0000 C   0  0  0  0  0  0  0  0  0  0  0  0
    3.3523   -1.1104    0.0000 C   0  0  0  0  0  0  0  0  0  0  0  0
    4.0668   -1.5229    0.0000 C   0  0  0  0  0  0  0  0  0  0  0  0
    4.7812   -1.1104    0.0000 C   0  0  0  0  0  0  0  0  0  0  0  0
    5.4957   -1.5229    0.0000 C   0  0  0  0  0  0  0  0  0  0  0  0
    5.4957   -2.3479    0.0000 C   0  0  0  0  0  0  0  0  0  0  0  0
    6.2102   -2.7604    0.0000 C   0  0  0  0  0  0  0  0  0  0  0  0
    6.9246   -2.3479    0.0000 C   0  0  0  0  0  0  0  0  0  0  0  0
    7.6391   -2.7604    0.0000 C   0  0  0  0  0  0  0  0  0  0  0  0
    7.6391   -3.5854    0.0000 C   0  0  0  0  0  0  0  0  0  0  0  0
    6.9246   -3.9979    0.0000 C   0  0  0  0  0  0  0  0  0  0  0  0
    6.9246   -4.8229    0.0000 C   0  0  0  0  0  0  0  0  0  0  0  0
    6.2102   -5.2354    0.0000 N   0  0  0  0  0  0  0  0  0  0  0  0
    6.2102   -6.0604    0.0000 C   0  0  0  0  0  0  0  0  0  0  0  0
    5.4957   -6.4729    0.0000 C   0  0  0  0  0  0  0  0  0  0  0  0
    4.7812   -6.0604    0.0000 C   0  0  0  0  0  0  0  0  0  0  0  0
    4.7812   -5.2354    0.0000 C   0  0  0  0  0  0  0  0  0  0  0  0
    5.4957   -4.8229    0.0000 C   0  0  0  0  0  0  0  0  0  0  0  0
    6.2102   -3.5854    0.0000 C   0  0  0  0  0  0  0  0  0  0  0  0
    4.7812   -2.7604    0.0000 C   0  0  0  0  0  0  0  0  0  0  0  0
    4.0668   -2.3479    0.0000 C   0  0  0  0  0  0  0  0  0  0  0  0
    2.6378   -1.5229    0.0000 C   0  0  0  0  0  0  0  0  0  0  0  0
    1.9233   -1.1104    0.0000 C   0  0  0  0  0  0  0  0  0  0  0  0
  1  2  1  0  0  0  0
  2  3  4  0  0  0  0
  3  4  4  0  0  0  0
  4  5  4  0  0  0  0
  5  6  4  0  0  0  0
  6  7  1  0  0  0  0
  7  8  2  0  0  0  0
  7  9  1  0  0  0  0
  6 10  4  0  0  0  0
 10 11  4  0  0  0  0
 11 12  1  0  0  0  0
 12 13  4  0  0  0  0
 13 14  4  0  0  0  0
 14 15  4  0  0  0  0
 15 16  1  0  0  0  0
 16 17  4  0  0  0  0
 17 18  4  0  0  0  0
 18 19  4  0  0  0  0
 19 20  4  0  0  0  0
 20 21  1  0  0  0  0
 21 22  1  0  0  0  0
 22 23  1  0  0  0  0
 23 24  1  0  0  0  0
 24 25  1  0  0  0  0
 25 26  1  0  0  0  0
 26 27  1  0  0  0  0
 22 27  1  0  0  0  0
 20 28  4  0  0  0  0
 16 28  4  0  0  0  0
 15 29  4  0  0  0  0
 29 30  4  0  0  0  0
 12 30  4  0  0  0  0
 11 31  4  0  0  0  0
 31 32  4  0  0  0  0
  5 32  4  0  0  0  0
  2 32  4  0  0  0  0
M  END
> <IC50(uM)>
1.0

> <Outcome>
1.0

> <BindingDB ID>
1100179

> <BindingDB MonomerID>
520638

> <BindingDB Ligand Name>
1-methyl-6-(3'-(piperidin-1-ylmethyl)-[1,1'-biphenyl]-4-yl)-1H- benzo[d][1,2,3]triazole-4-carboxylic acid;::US11147801, Compound 20

> <Curation/DataSource>
US Patent

> <Article DOI>
?

> <PMID>
?

> <Patent Number>
US11147801

> <Authors>
Nellore, K; Hosahalli, S

> <Link to Ligand in BindingDB>
http://www.bindingdb.org/bind/chemsearch/marvin/MolStructure.jsp?monomerid=520638

> <Link to Ligand-Target Pair in BindingDB>
http://www.bindingdb.org/jsp/dbsearch/PrimarySearch_ki.jsp?energyterm=kJ/mole&tag=r21&monomerid=520638&enzyme=Dihydroorotate+dehydrogenase&column=ki&startPg=0&Increment=50&submit=Search

> <PubChem CID>
?

> <PubChem SID>
?

$$$$

  Mrv2115 07222212352D          

 22 25  0  0  0  0            999 V2000
    5.7663   -2.1672    0.0000 N   0  0  0  0  0  0  0  0  0  0  0  0
    4.9594   -1.9957    0.0000 C   0  0  0  0  0  0  0  0  0  0  0  0
    4.4073   -2.6088    0.0000 C   0  0  0  0  0  0  0  0  0  0  0  0
    3.6004   -2.4373    0.0000 C   0  0  0  0  0  0  0  0  0  0  0  0
    3.3454   -1.6527    0.0000 C   0  0  0  0  0  0  0  0  0  0  0  0
    3.8974   -1.0396    0.0000 C   0  0  0  0  0  0  0  0  0  0  0  0
    3.6425   -0.2549    0.0000 N   0  0  0  0  0  0  0  0  0  0  0  0
    4.1274    0.4125    0.0000 N   0  0  0  0  0  0  0  0  0  0  0  0
    3.6425    1.0799    0.0000 N   0  0  0  0  0  0  0  0  0  0  0  0
    2.8579    0.8250    0.0000 C   0  0  0  0  0  0  0  0  0  0  0  0
    2.8579    0.0000    0.0000 C   0  0  0  0  0  0  0  0  0  0  0  0
    2.1434   -0.4125    0.0000 C   0  0  0  0  0  0  0  0  0  0  0  0
    2.1434   -1.2375    0.0000 O   0  0  0  0  0  0  0  0  0  0  0  0
    1.4289   -0.0000    0.0000 C   0  0  0  0  0  0  0  0  0  0  0  0
    0.7145   -0.4125    0.0000 C   0  0  0  0  0  0  0  0  0  0  0  0
   -0.0000    0.0000    0.0000 C   0  0  0  0  0  0  0  0  0  0  0  0
    0.0000    0.8250    0.0000 C   0  0  0  0  0  0  0  0  0  0  0  0
    0.7145    1.2375    0.0000 C   0  0  0  0  0  0  0  0  0  0  0  0
    1.4289    0.8250    0.0000 C   0  0  0  0  0  0  0  0  0  0  0  0
    2.1434    1.2375    0.0000 C   0  0  0  0  0  0  0  0  0  0  0  0
    2.1434    2.0625    0.0000 O   0  0  0  0  0  0  0  0  0  0  0  0
    4.7044   -1.2111    0.0000 C   0  0  0  0  0  0  0  0  0  0  0  0
  1  2  1  0  0  0  0
  2  3  4  0  0  0  0
  3  4  4  0  0  0  0
  4  5  4  0  0  0  0
  5  6  4  0  0  0  0
  6  7  1  0  0  0  0
  7  8  4  0  0  0  0
  8  9  4  0  0  0  0
  9 10  4  0  0  0  0
 10 11  4  0  0  0  0
  7 11  4  0  0  0  0
 11 12  1  0  0  0  0
 12 13  2  0  0  0  0
 12 14  1  0  0  0  0
 14 15  4  0  0  0  0
 15 16  4  0  0  0  0
 16 17  4  0  0  0  0
 17 18  4  0  0  0  0
 18 19  4  0  0  0  0
 14 19  4  0  0  0  0
 19 20  1  0  0  0  0
 10 20  1  0  0  0  0
 20 21  2  0  0  0  0
  6 22  4  0  0  0  0
  2 22  4  0  0  0  0
M  END
> <IC50(uM)>
1.0

> <Outcome>
1.0

> <BindingDB ID>
51338166

> <BindingDB MonomerID>
50541640

> <BindingDB Ligand Name>
CHEMBL4645478

> <Curation/DataSource>
ChEMBL

> <Article DOI>
10.1021/acs.jmedchem.0c00512

> <PMID>
32496056

> <Patent Number>
?

> <Authors>
Zuo, Z; Liu, X; Qian, X; Zeng, T; Sang, N; Liu, H; Zhou, Y; Tao, L; Zhou, X; Su, N; Yu, Y; Chen, Q; Luo, Y; Zhao, Y

> <Link to Ligand in BindingDB>
http://www.bindingdb.org/bind/chemsearch/marvin/MolStructure.jsp?monomerid=50541640

> <Link to Ligand-Target Pair in BindingDB>
http://www.bindingdb.org/jsp/dbsearch/PrimarySearch_ki.jsp?energyterm=kJ/mole&tag=r21&monomerid=50541640&enzyme=Dihydroorotate+dehydrogenase&column=ki&startPg=0&Increment=50&submit=Search

> <PubChem CID>
156019256

> <PubChem SID>
442143203

$$$$

  Mrv2115 07222212352D          

 36 38  0  0  0  0            999 V2000
    0.7145   -2.8875    0.0000 C   0  0  0  0  0  0  0  0  0  0  0  0
    0.7145   -3.7125    0.0000 C   0  0  0  0  0  0  0  0  0  0  0  0
    1.4289   -4.1250    0.0000 C   0  0  0  0  0  0  0  0  0  0  0  0
    2.1434   -3.7125    0.0000 C   0  0  0  0  0  0  0  0  0  0  0  0
    1.4289   -4.9500    0.0000 C   0  0  0  0  0  0  0  0  0  0  0  0
    0.7615   -5.4349    0.0000 N   0  0  0  0  0  0  0  0  0  0  0  0
    1.0164   -6.2195    0.0000 N   0  0  0  0  0  0  0  0  0  0  0  0
    0.5315   -6.8870    0.0000 C   0  0  0  0  0  0  0  0  0  0  0  0
    0.8671   -7.6407    0.0000 C   0  0  0  0  0  0  0  0  0  0  0  0
    0.3822   -8.3081    0.0000 C   0  0  0  0  0  0  0  0  0  0  0  0
    0.7177   -9.0618    0.0000 O   0  0  0  0  0  0  0  0  0  0  0  0
    1.5382   -9.1480    0.0000 C   0  0  0  0  0  0  0  0  0  0  0  0
    2.0231   -8.4806    0.0000 C   0  0  0  0  0  0  0  0  0  0  0  0
    1.8738   -9.9017    0.0000 C   0  0  0  0  0  0  0  0  0  0  0  0
    1.1201  -10.2372    0.0000 F   0  0  0  0  0  0  0  0  0  0  0  0
    2.6274   -9.5661    0.0000 F   0  0  0  0  0  0  0  0  0  0  0  0
    2.2093  -10.6554    0.0000 F   0  0  0  0  0  0  0  0  0  0  0  0
   -0.4383   -8.2219    0.0000 C   0  0  0  0  0  0  0  0  0  0  0  0
   -0.9232   -8.8893    0.0000 C   0  0  0  0  0  0  0  0  0  0  0  0
   -1.7437   -8.8031    0.0000 O   0  0  0  0  0  0  0  0  0  0  0  0
   -0.5877   -9.6430    0.0000 N   0  0  0  0  0  0  0  0  0  0  0  0
   -1.0726  -10.3104    0.0000 C   0  0  0  0  0  0  0  0  0  0  0  0
   -0.7371  -11.0641    0.0000 C   0  0  0  0  0  0  0  0  0  0  0  0
    0.0834  -11.1503    0.0000 F   0  0  0  0  0  0  0  0  0  0  0  0
   -1.2220  -11.7315    0.0000 C   0  0  0  0  0  0  0  0  0  0  0  0
   -2.0425  -11.6453    0.0000 C   0  0  0  0  0  0  0  0  0  0  0  0
   -2.3780  -10.8916    0.0000 C   0  0  0  0  0  0  0  0  0  0  0  0
   -1.8931  -10.2242    0.0000 C   0  0  0  0  0  0  0  0  0  0  0  0
   -2.2287   -9.4705    0.0000 F   0  0  0  0  0  0  0  0  0  0  0  0
   -0.7739   -7.4682    0.0000 C   0  0  0  0  0  0  0  0  0  0  0  0
   -0.2890   -6.8007    0.0000 C   0  0  0  0  0  0  0  0  0  0  0  0
   -0.6245   -6.0471    0.0000 F   0  0  0  0  0  0  0  0  0  0  0  0
    1.8414   -6.2195    0.0000 C   0  0  0  0  0  0  0  0  0  0  0  0
    2.3264   -6.8870    0.0000 O   0  0  0  0  0  0  0  0  0  0  0  0
    2.0964   -5.4349    0.0000 N   0  0  0  0  0  0  0  0  0  0  0  0
    2.8810   -5.1800    0.0000 C   0  0  0  0  0  0  0  0  0  0  0  0
  1  2  1  0  0  0  0
  2  3  1  0  0  0  0
  3  4  1  0  0  0  0
  3  5  1  0  0  0  0
  5  6  4  0  0  0  0
  6  7  4  0  0  0  0
  7  8  1  0  0  0  0
  8  9  4  0  0  0  0
  9 10  4  0  0  0  0
 10 11  1  0  0  0  0
 11 12  1  0  0  0  0
 12 13  1  0  0  0  0
 12 14  1  0  0  0  0
 14 15  1  0  0  0  0
 14 16  1  0  0  0  0
 14 17  1  0  0  0  0
 10 18  4  0  0  0  0
 18 19  1  0  0  0  0
 19 20  2  0  0  0  0
 19 21  1  0  0  0  0
 21 22  1  0  0  0  0
 22 23  4  0  0  0  0
 23 24  1  0  0  0  0
 23 25  4  0  0  0  0
 25 26  4  0  0  0  0
 26 27  4  0  0  0  0
 27 28  4  0  0  0  0
 22 28  4  0  0  0  0
 28 29  1  0  0  0  0
 18 30  4  0  0  0  0
 30 31  4  0  0  0  0
  8 31  4  0  0  0  0
 31 32  1  0  0  0  0
  7 33  4  0  0  0  0
 33 34  2  0  0  0  0
 33 35  4  0  0  0  0
  5 35  4  0  0  0  0
 35 36  1  0  0  0  0
M  END
> <IC50(uM)>
2.5

> <Outcome>
0.0

> <BindingDB ID>
972572; 1098726

> <BindingDB MonomerID>
470446

> <BindingDB Ligand Name>
4-[3-(butan-2-yl)-4-methyl-5-oxo-4,5-dihydro-1H-1,2,4-triazol-1-yl]-N-(2,6-difluorophenyl)-5-fluoro-2-{[(2S)-1,1,1-trifluoropropan-2-yl]oxy}benzamide, Mixture of Stereoisomers::US10815215, Example 114; 4-[3-(butan-2-yl)-4-methyl-5-oxo-4,5-dihydro-1H-1,2,4-triazol-1-yl]-N-(2,6-difluorophenyl)-5-fluoro-2-{[(2S)-1,1,1-trifluoropropan-2-yl]oxy}benzamide, Mixture of Stereoisomers::US10815215, Example 114::US11130745, Example 114

> <Curation/DataSource>
US Patent

> <Article DOI>
?

> <PMID>
?

> <Patent Number>
US10815215; US11130745

> <Authors>
Gradl, SN; Nguyen, D; Eis, K; Gunther, J; Stellfeld, T; Janzer, A; Christian, S; Muller, T; Sheikh, SE; Zhou, HJ; Zhao, C; Sykes, DB; Ferrara, SJ; Liu, K; Krober, M; Merz, C; Niehues, M; Schafer, M; Zimmermann, K; Nising, CF; Gradl, SN; Nguyen, D; Eis, K; Gunther, J; Stellfeld, T; Janzer, A; Christian, S; Muller, T; Sheikh, SE; Sykes, DB; Ferrara, SJ; Krober, M; Merz, C; Niehues, M; Schafer, M; Zimmermann, K; Nising, CF

> <Link to Ligand in BindingDB>
http://www.bindingdb.org/bind/chemsearch/marvin/MolStructure.jsp?monomerid=470446

> <Link to Ligand-Target Pair in BindingDB>
http://www.bindingdb.org/jsp/dbsearch/PrimarySearch_ki.jsp?energyterm=kJ/mole&tag=r21&monomerid=470446&enzyme=Dihydroorotate+dehydrogenase&column=ki&startPg=0&Increment=50&submit=Search

> <PubChem CID>
134469837

> <PubChem SID>
441609623

$$$$

  Mrv2115 07222212352D          

 33 36  0  0  0  0            999 V2000
   -0.6284    2.1599    0.0000 C   0  0  0  0  0  0  0  0  0  0  0  0
   -1.4534    2.1599    0.0000 C   0  0  0  0  0  0  0  0  0  0  0  0
   -1.8659    1.4455    0.0000 C   0  0  0  0  0  0  0  0  0  0  0  0
   -2.6909    1.4455    0.0000 C   0  0  0  0  0  0  0  0  0  0  0  0
   -3.1034    2.1599    0.0000 C   0  0  0  0  0  0  0  0  0  0  0  0
   -3.1034    0.7310    0.0000 O   0  0  0  0  0  0  0  0  0  0  0  0
   -2.6909    0.0165    0.0000 C   0  0  0  0  0  0  0  0  0  0  0  0
   -1.8659    0.0165    0.0000 C   0  0  0  0  0  0  0  0  0  0  0  0
   -1.4534   -0.6979    0.0000 C   0  0  0  0  0  0  0  0  0  0  0  0
   -0.6284   -0.6979    0.0000 N   0  0  0  0  0  0  0  0  0  0  0  0
   -0.1435   -1.3654    0.0000 N   0  0  0  0  0  0  0  0  0  0  0  0
    0.6411   -1.1104    0.0000 C   0  0  0  0  0  0  0  0  0  0  0  0
    0.6411   -0.2854    0.0000 N   0  0  0  0  0  0  0  0  0  0  0  0
   -0.1435   -0.0305    0.0000 C   0  0  0  0  0  0  0  0  0  0  0  0
   -0.3984    0.7541    0.0000 O   0  0  0  0  0  0  0  0  0  0  0  0
    1.3556    0.1271    0.0000 C   0  0  0  0  0  0  0  0  0  0  0  0
    2.0701   -0.2854    0.0000 C   0  0  0  0  0  0  0  0  0  0  0  0
    2.0701   -1.1104    0.0000 C   0  0  0  0  0  0  0  0  0  0  0  0
    1.3556   -1.5229    0.0000 C   0  0  0  0  0  0  0  0  0  0  0  0
   -1.8659   -1.4124    0.0000 C   0  0  0  0  0  0  0  0  0  0  0  0
   -1.4534   -2.1269    0.0000 F   0  0  0  0  0  0  0  0  0  0  0  0
   -2.6909   -1.4124    0.0000 C   0  0  0  0  0  0  0  0  0  0  0  0
   -3.1034   -0.6979    0.0000 C   0  0  0  0  0  0  0  0  0  0  0  0
   -3.9284   -0.6979    0.0000 C   0  0  0  0  0  0  0  0  0  0  0  0
   -4.3409    0.0165    0.0000 O   0  0  0  0  0  0  0  0  0  0  0  0
   -4.3409   -1.4124    0.0000 N   0  0  0  0  0  0  0  0  0  0  0  0
   -3.9284   -2.1269    0.0000 C   0  0  0  0  0  0  0  0  0  0  0  0
   -3.1034   -2.1269    0.0000 C   0  0  0  0  0  0  0  0  0  0  0  0
   -2.6909   -2.8414    0.0000 C   0  0  0  0  0  0  0  0  0  0  0  0
   -3.1034   -3.5558    0.0000 C   0  0  0  0  0  0  0  0  0  0  0  0
   -3.9284   -3.5558    0.0000 C   0  0  0  0  0  0  0  0  0  0  0  0
   -4.3409   -2.8414    0.0000 C   0  0  0  0  0  0  0  0  0  0  0  0
   -5.1659   -2.8414    0.0000 C   0  0  0  0  0  0  0  0  0  0  0  0
  1  2  1  0  0  0  0
  2  3  1  0  0  0  0
  3  4  1  0  0  0  0
  4  5  1  0  0  0  0
  4  6  1  0  0  0  0
  6  7  1  0  0  0  0
  7  8  4  0  0  0  0
  8  9  4  0  0  0  0
  9 10  1  0  0  0  0
 10 11  4  0  0  0  0
 11 12  4  0  0  0  0
 12 13  4  0  0  0  0
 13 14  4  0  0  0  0
 10 14  4  0  0  0  0
 14 15  2  0  0  0  0
 13 16  1  0  0  0  0
 16 17  1  0  0  0  0
 17 18  1  0  0  0  0
 18 19  1  0  0  0  0
 12 19  1  0  0  0  0
  9 20  4  0  0  0  0
 20 21  1  0  0  0  0
 20 22  4  0  0  0  0
 22 23  4  0  0  0  0
  7 23  4  0  0  0  0
 23 24  1  0  0  0  0
 24 25  2  0  0  0  0
 24 26  1  0  0  0  0
 26 27  1  0  0  0  0
 27 28  4  0  0  0  0
 28 29  4  0  0  0  0
 29 30  4  0  0  0  0
 30 31  4  0  0  0  0
 31 32  4  0  0  0  0
 27 32  4  0  0  0  0
 32 33  1  0  0  0  0
M  END
> <IC50(uM)>
0.005075

> <Outcome>
1.0

> <BindingDB ID>
1020383; 1020382

> <BindingDB MonomerID>
490339

> <BindingDB Ligand Name>
5-fluoro-N-(2-methylphenyl)-4-(3-oxo-5,6,7,8-tetrahydro[1,2,4]triazolo[4,3-a]pyridin-2(3H)-yl)-2-[(2S)-pentan-2-yloxy]benzamide::US10968216, Example 7

> <Curation/DataSource>
US Patent

> <Article DOI>
?

> <PMID>
?

> <Patent Number>
US10968216

> <Authors>
Gradl, SN; Nguyen, D; Eis, K; Gunther, J; Stellfeld, T; Janzer, A; Christian, S; Mueller, T; Sheikh, SE; Zhou, HJ; Zhao, C; Sykes, DB; Ferrara, SJ; Liu, K; Herbert, SA; Merz, C; Niehues, M; Nising, CF; Schafer, M; Zimmermann, K; Knablein, J; Thede, K; Faupel, T

> <Link to Ligand in BindingDB>
http://www.bindingdb.org/bind/chemsearch/marvin/MolStructure.jsp?monomerid=490339

> <Link to Ligand-Target Pair in BindingDB>
http://www.bindingdb.org/jsp/dbsearch/PrimarySearch_ki.jsp?energyterm=kJ/mole&tag=r21&monomerid=490339&enzyme=Dihydroorotate+dehydrogenase&column=ki&startPg=0&Increment=50&submit=Search

> <PubChem CID>
134473913

> <PubChem SID>
447117066

$$$$

  Mrv2115 07222212352D          

 34 36  0  0  0  0            999 V2000
    0.0000   -6.9417    0.0000 C   0  0  0  0  0  0  0  0  0  0  0  0
    0.7145   -7.3542    0.0000 C   0  0  0  0  0  0  0  0  0  0  0  0
    1.4289   -6.9417    0.0000 C   0  0  0  0  0  0  0  0  0  0  0  0
    2.1434   -7.3542    0.0000 N   0  0  0  0  0  0  0  0  0  0  0  0
    2.8579   -6.9417    0.0000 C   0  0  0  0  0  0  0  0  0  0  0  0
    2.8579   -6.1167    0.0000 O   0  0  0  0  0  0  0  0  0  0  0  0
    3.5724   -7.3542    0.0000 N   0  0  0  0  0  0  0  0  0  0  0  0
    4.3692   -7.1407    0.0000 C   0  0  0  0  0  0  0  0  0  0  0  0
    4.7817   -6.4262    0.0000 C   0  0  0  0  0  0  0  0  0  0  0  0
    5.1942   -5.7118    0.0000 N   0  0  0  0  0  0  0  0  0  0  0  0
    4.5828   -7.9376    0.0000 C   0  0  0  0  0  0  0  0  0  0  0  0
    5.2972   -8.3501    0.0000 C   0  0  0  0  0  0  0  0  0  0  0  0
    6.0117   -7.9376    0.0000 C   0  0  0  0  0  0  0  0  0  0  0  0
    6.7262   -8.3501    0.0000 C   0  0  0  0  0  0  0  0  0  0  0  0
    6.7262   -9.1751    0.0000 C   0  0  0  0  0  0  0  0  0  0  0  0
    7.4407   -9.5876    0.0000 C   0  0  0  0  0  0  0  0  0  0  0  0
    8.1551   -9.1751    0.0000 C   0  0  0  0  0  0  0  0  0  0  0  0
    8.8696   -9.5876    0.0000 C   0  0  0  0  0  0  0  0  0  0  0  0
    8.8696  -10.4126    0.0000 C   0  0  0  0  0  0  0  0  0  0  0  0
    9.5841  -10.8251    0.0000 C   0  0  0  0  0  0  0  0  0  0  0  0
   10.2985  -11.2376    0.0000 F   0  0  0  0  0  0  0  0  0  0  0  0
    9.1716  -11.5396    0.0000 F   0  0  0  0  0  0  0  0  0  0  0  0
    9.9966  -10.1106    0.0000 F   0  0  0  0  0  0  0  0  0  0  0  0
    8.1551  -10.8251    0.0000 C   0  0  0  0  0  0  0  0  0  0  0  0
    8.1551  -11.6501    0.0000 C   0  0  0  0  0  0  0  0  0  0  0  0
    8.1551  -12.4751    0.0000 F   0  0  0  0  0  0  0  0  0  0  0  0
    7.3301  -11.6501    0.0000 F   0  0  0  0  0  0  0  0  0  0  0  0
    8.9397  -11.9050    0.0000 F   0  0  0  0  0  0  0  0  0  0  0  0
    7.4407  -10.4126    0.0000 C   0  0  0  0  0  0  0  0  0  0  0  0
    6.0117   -9.5876    0.0000 C   0  0  0  0  0  0  0  0  0  0  0  0
    5.2972   -9.1751    0.0000 C   0  0  0  0  0  0  0  0  0  0  0  0
    3.7859   -8.1511    0.0000 C   0  0  0  0  0  0  0  0  0  0  0  0
    3.3734   -8.8656    0.0000 C   0  0  0  0  0  0  0  0  0  0  0  0
    2.5484   -8.8656    0.0000 O   0  0  0  0  0  0  0  0  0  0  0  0
  1  2  1  0  0  0  0
  2  3  1  0  0  0  0
  3  4  1  0  0  0  0
  4  5  1  0  0  0  0
  5  6  2  0  0  0  0
  5  7  1  0  0  0  0
  7  8  1  0  0  0  0
  8  9  1  0  0  0  0
  9 10  3  0  0  0  0
  8 11  1  0  0  0  0
 11 12  1  0  0  0  0
 12 13  4  0  0  0  0
 13 14  4  0  0  0  0
 14 15  4  0  0  0  0
 15 16  1  0  0  0  0
 16 17  4  0  0  0  0
 17 18  4  0  0  0  0
 18 19  4  0  0  0  0
 19 20  1  0  0  0  0
 20 21  1  0  0  0  0
 20 22  1  0  0  0  0
 20 23  1  0  0  0  0
 19 24  4  0  0  0  0
 24 25  1  0  0  0  0
 25 26  1  0  0  0  0
 25 27  1  0  0  0  0
 25 28  1  0  0  0  0
 24 29  4  0  0  0  0
 16 29  4  0  0  0  0
 15 30  4  0  0  0  0
 30 31  4  0  0  0  0
 12 31  4  0  0  0  0
 11 32  1  0  0  0  0
  7 32  1  0  0  0  0
 32 33  1  0  0  0  0
 33 34  1  0  0  0  0
M  END
> <IC50(uM)>
50.0

> <Outcome>
0.0

> <BindingDB ID>
50682098

> <BindingDB MonomerID>
50231827

> <BindingDB Ligand Name>
CHEMBL4064731

> <Curation/DataSource>
ChEMBL

> <Article DOI>
10.1021/acsmedchemlett.7b00030

> <PMID>
28435533

> <Patent Number>
?

> <Authors>
Maetani, M; Kato, N; Jabor, VAP; Calil, FA; Nonato, MC; Scherer, CA; Schreiber, SL

> <Link to Ligand in BindingDB>
http://www.bindingdb.org/bind/chemsearch/marvin/MolStructure.jsp?monomerid=50231827

> <Link to Ligand-Target Pair in BindingDB>
http://www.bindingdb.org/jsp/dbsearch/PrimarySearch_ki.jsp?energyterm=kJ/mole&tag=r21&monomerid=50231827&enzyme=Dihydroorotate+dehydrogenase&column=ki&startPg=0&Increment=50&submit=Search

> <PubChem CID>
121596187

> <PubChem SID>
384226302

$$$$

  Mrv2115 07222212352D          

 37 41  0  0  0  0            999 V2000
    3.5724   -3.7125    0.0000 C   0  0  0  0  0  0  0  0  0  0  0  0
    2.8579   -4.1250    0.0000 C   0  0  0  0  0  0  0  0  0  0  0  0
    2.1434   -3.7125    0.0000 O   0  0  0  0  0  0  0  0  0  0  0  0
    1.4289   -4.1250    0.0000 C   0  0  0  0  0  0  0  0  0  0  0  0
    1.4289   -4.9500    0.0000 C   0  0  0  0  0  0  0  0  0  0  0  0
    0.7145   -5.3625    0.0000 C   0  0  0  0  0  0  0  0  0  0  0  0
    0.7145   -6.1875    0.0000 N   0  0  0  0  0  0  0  0  0  0  0  0
    0.0470   -6.6724    0.0000 N   0  0  0  0  0  0  0  0  0  0  0  0
    0.3020   -7.4570    0.0000 C   0  0  0  0  0  0  0  0  0  0  0  0
    1.1270   -7.4570    0.0000 N   0  0  0  0  0  0  0  0  0  0  0  0
    1.3819   -6.6724    0.0000 C   0  0  0  0  0  0  0  0  0  0  0  0
    2.1665   -6.4175    0.0000 O   0  0  0  0  0  0  0  0  0  0  0  0
    1.5395   -8.1715    0.0000 C   0  0  0  0  0  0  0  0  0  0  0  0
    1.1270   -8.8860    0.0000 C   0  0  0  0  0  0  0  0  0  0  0  0
    0.3020   -8.8860    0.0000 C   0  0  0  0  0  0  0  0  0  0  0  0
   -0.1105   -8.1715    0.0000 C   0  0  0  0  0  0  0  0  0  0  0  0
    0.0000   -4.9500    0.0000 C   0  0  0  0  0  0  0  0  0  0  0  0
   -0.7145   -5.3625    0.0000 F   0  0  0  0  0  0  0  0  0  0  0  0
    0.0000   -4.1250    0.0000 C   0  0  0  0  0  0  0  0  0  0  0  0
    0.7145   -3.7125    0.0000 C   0  0  0  0  0  0  0  0  0  0  0  0
    0.7145   -2.8875    0.0000 C   0  0  0  0  0  0  0  0  0  0  0  0
    0.0000   -2.4750    0.0000 O   0  0  0  0  0  0  0  0  0  0  0  0
    1.4289   -2.4750    0.0000 N   0  0  0  0  0  0  0  0  0  0  0  0
    1.4289   -1.6500    0.0000 C   0  0  0  0  0  0  0  0  0  0  0  0
    0.7145   -1.2375    0.0000 C   0  0  0  0  0  0  0  0  0  0  0  0
    0.7145   -0.4125    0.0000 C   0  0  0  0  0  0  0  0  0  0  0  0
    1.4289    0.0000    0.0000 C   0  0  0  0  0  0  0  0  0  0  0  0
    2.1434   -0.4125    0.0000 C   0  0  0  0  0  0  0  0  0  0  0  0
    2.8579    0.0000    0.0000 C   0  0  0  0  0  0  0  0  0  0  0  0
    3.5724   -0.4125    0.0000 C   0  0  0  0  0  0  0  0  0  0  0  0
    3.5724   -1.2375    0.0000 C   0  0  0  0  0  0  0  0  0  0  0  0
    2.8579   -1.6500    0.0000 N   0  0  0  0  0  0  0  0  0  0  0  0
    2.1434   -1.2375    0.0000 C   0  0  0  0  0  0  0  0  0  0  0  0
    2.8579   -4.9500    0.0000 C   0  0  0  0  0  0  0  0  0  0  0  0
    2.0329   -4.9500    0.0000 F   0  0  0  0  0  0  0  0  0  0  0  0
    3.6829   -4.9500    0.0000 F   0  0  0  0  0  0  0  0  0  0  0  0
    2.8579   -5.7750    0.0000 F   0  0  0  0  0  0  0  0  0  0  0  0
  1  2  1  0  0  0  0
  2  3  1  0  0  0  0
  3  4  1  0  0  0  0
  4  5  4  0  0  0  0
  5  6  4  0  0  0  0
  6  7  1  0  0  0  0
  7  8  4  0  0  0  0
  8  9  4  0  0  0  0
  9 10  4  0  0  0  0
 10 11  4  0  0  0  0
  7 11  4  0  0  0  0
 11 12  2  0  0  0  0
 10 13  1  0  0  0  0
 13 14  1  0  0  0  0
 14 15  1  0  0  0  0
 15 16  1  0  0  0  0
  9 16  1  0  0  0  0
  6 17  4  0  0  0  0
 17 18  1  0  0  0  0
 17 19  4  0  0  0  0
 19 20  4  0  0  0  0
  4 20  4  0  0  0  0
 20 21  1  0  0  0  0
 21 22  2  0  0  0  0
 21 23  1  0  0  0  0
 23 24  1  0  0  0  0
 24 25  4  0  0  0  0
 25 26  4  0  0  0  0
 26 27  4  0  0  0  0
 27 28  4  0  0  0  0
 28 29  4  0  0  0  0
 29 30  4  0  0  0  0
 30 31  4  0  0  0  0
 31 32  4  0  0  0  0
 32 33  4  0  0  0  0
 24 33  4  0  0  0  0
 28 33  4  0  0  0  0
  2 34  1  0  0  0  0
 34 35  1  0  0  0  0
 34 36  1  0  0  0  0
 34 37  1  0  0  0  0
M  END
> <IC50(uM)>
1.5

> <Outcome>
0.0

> <BindingDB ID>
1020479

> <BindingDB MonomerID>
490427

> <BindingDB Ligand Name>
5-fluoro-4-(3-oxo-5,6,7,8-tetrahydro[1,2,4]triazolo[4,3-a]pyridin-2(3H)-yl)-N-(quinolin-8-yl)-2-{[(2S)-1,1,1-trifluoropropan-2-yl]oxy}benzamide::US10968216, Example 95

> <Curation/DataSource>
US Patent

> <Article DOI>
?

> <PMID>
?

> <Patent Number>
US10968216

> <Authors>
Gradl, SN; Nguyen, D; Eis, K; Gunther, J; Stellfeld, T; Janzer, A; Christian, S; Mueller, T; Sheikh, SE; Zhou, HJ; Zhao, C; Sykes, DB; Ferrara, SJ; Liu, K; Herbert, SA; Merz, C; Niehues, M; Nising, CF; Schafer, M; Zimmermann, K; Knablein, J; Thede, K; Faupel, T

> <Link to Ligand in BindingDB>
http://www.bindingdb.org/bind/chemsearch/marvin/MolStructure.jsp?monomerid=490427

> <Link to Ligand-Target Pair in BindingDB>
http://www.bindingdb.org/jsp/dbsearch/PrimarySearch_ki.jsp?energyterm=kJ/mole&tag=r21&monomerid=490427&enzyme=Dihydroorotate+dehydrogenase&column=ki&startPg=0&Increment=50&submit=Search

> <PubChem CID>
134474327

> <PubChem SID>
447117154

$$$$

  Mrv2115 07222212352D          

 29 32  0  0  0  0            999 V2000
    2.1434   -2.8875    0.0000 O   0  0  0  0  0  0  0  0  0  0  0  0
    1.4289   -2.4750    0.0000 C   0  0  0  0  0  0  0  0  0  0  0  0
    0.7145   -2.8875    0.0000 O   0  0  0  0  0  0  0  0  0  0  0  0
    1.4289   -1.6500    0.0000 C   0  0  0  0  0  0  0  0  0  0  0  0
    0.7145   -1.2375    0.0000 C   0  0  0  0  0  0  0  0  0  0  0  0
    0.7145   -0.4125    0.0000 C   0  0  0  0  0  0  0  0  0  0  0  0
    0.0000    0.0000    0.0000 C   0  0  0  0  0  0  0  0  0  0  0  0
   -0.7145   -0.4125    0.0000 C   0  0  0  0  0  0  0  0  0  0  0  0
   -1.4289    0.0000    0.0000 C   0  0  0  0  0  0  0  0  0  0  0  0
   -1.4289    0.8250    0.0000 C   0  0  0  0  0  0  0  0  0  0  0  0
   -2.1434    1.2375    0.0000 C   0  0  0  0  0  0  0  0  0  0  0  0
   -2.8579    0.8250    0.0000 C   0  0  0  0  0  0  0  0  0  0  0  0
   -3.5724    1.2375    0.0000 C   0  0  0  0  0  0  0  0  0  0  0  0
   -3.5724    2.0625    0.0000 C   0  0  0  0  0  0  0  0  0  0  0  0
   -2.8579    2.4750    0.0000 N   0  0  0  0  0  0  0  0  0  0  0  0
   -2.1434    2.0625    0.0000 C   0  0  0  0  0  0  0  0  0  0  0  0
   -1.4289    2.4750    0.0000 C   0  0  0  0  0  0  0  0  0  0  0  0
   -0.7145    2.8875    0.0000 F   0  0  0  0  0  0  0  0  0  0  0  0
   -1.0164    1.7605    0.0000 F   0  0  0  0  0  0  0  0  0  0  0  0
   -1.8414    3.1895    0.0000 F   0  0  0  0  0  0  0  0  0  0  0  0
   -0.7145    1.2375    0.0000 C   0  0  0  0  0  0  0  0  0  0  0  0
    0.0000    0.8250    0.0000 C   0  0  0  0  0  0  0  0  0  0  0  0
    1.4289    0.0000    0.0000 N   0  0  0  0  0  0  0  0  0  0  0  0
    2.1434   -0.4125    0.0000 C   0  0  0  0  0  0  0  0  0  0  0  0
    2.8579    0.0000    0.0000 C   0  0  0  0  0  0  0  0  0  0  0  0
    3.5724   -0.4125    0.0000 C   0  0  0  0  0  0  0  0  0  0  0  0
    3.5724   -1.2375    0.0000 C   0  0  0  0  0  0  0  0  0  0  0  0
    2.8579   -1.6500    0.0000 C   0  0  0  0  0  0  0  0  0  0  0  0
    2.1434   -1.2375    0.0000 C   0  0  0  0  0  0  0  0  0  0  0  0
  1  2  2  0  0  0  0
  2  3  1  0  0  0  0
  2  4  1  0  0  0  0
  4  5  4  0  0  0  0
  5  6  4  0  0  0  0
  6  7  1  0  0  0  0
  7  8  4  0  0  0  0
  8  9  4  0  0  0  0
  9 10  4  0  0  0  0
 10 11  1  0  0  0  0
 11 12  4  0  0  0  0
 12 13  4  0  0  0  0
 13 14  4  0  0  0  0
 14 15  4  0  0  0  0
 15 16  4  0  0  0  0
 11 16  4  0  0  0  0
 16 17  1  0  0  0  0
 17 18  1  0  0  0  0
 17 19  1  0  0  0  0
 17 20  1  0  0  0  0
 10 21  4  0  0  0  0
 21 22  4  0  0  0  0
  7 22  4  0  0  0  0
  6 23  4  0  0  0  0
 23 24  4  0  0  0  0
 24 25  4  0  0  0  0
 25 26  4  0  0  0  0
 26 27  4  0  0  0  0
 27 28  4  0  0  0  0
 28 29  4  0  0  0  0
  4 29  4  0  0  0  0
 24 29  4  0  0  0  0
M  END
> <IC50(uM)>
0.148

> <Outcome>
1.0

> <BindingDB ID>
51126183

> <BindingDB MonomerID>
50461870

> <BindingDB Ligand Name>
CHEMBL4227002

> <Curation/DataSource>
ChEMBL

> <Article DOI>
10.1021/acs.jmedchem.7b01862

> <PMID>
29727569

> <Patent Number>
?

> <Authors>
Madak, JT; Cuthbertson, CR; Miyata, Y; Tamura, S; Petrunak, EM; Stuckey, JA; Han, Y; He, M; Sun, D; Showalter, HD; Neamati, N

> <Link to Ligand in BindingDB>
http://www.bindingdb.org/bind/chemsearch/marvin/MolStructure.jsp?monomerid=50461870

> <Link to Ligand-Target Pair in BindingDB>
http://www.bindingdb.org/jsp/dbsearch/PrimarySearch_ki.jsp?energyterm=kJ/mole&tag=r21&monomerid=50461870&enzyme=Dihydroorotate+dehydrogenase&column=ki&startPg=0&Increment=50&submit=Search

> <PubChem CID>
145971128

> <PubChem SID>
433929135

$$$$

  Mrv2115 07222212352D          

 37 40  0  0  0  0            999 V2000
   -3.1034    2.1599    0.0000 C   0  0  0  0  0  0  0  0  0  0  0  0
   -2.6909    1.4455    0.0000 C   0  0  0  0  0  0  0  0  0  0  0  0
   -3.1034    0.7310    0.0000 O   0  0  0  0  0  0  0  0  0  0  0  0
   -2.6909    0.0165    0.0000 C   0  0  0  0  0  0  0  0  0  0  0  0
   -1.8659    0.0165    0.0000 C   0  0  0  0  0  0  0  0  0  0  0  0
   -1.4534   -0.6979    0.0000 C   0  0  0  0  0  0  0  0  0  0  0  0
   -0.6284   -0.6979    0.0000 N   0  0  0  0  0  0  0  0  0  0  0  0
   -0.1435   -1.3654    0.0000 N   0  0  0  0  0  0  0  0  0  0  0  0
    0.6411   -1.1104    0.0000 C   0  0  0  0  0  0  0  0  0  0  0  0
    0.6411   -0.2854    0.0000 N   0  0  0  0  0  0  0  0  0  0  0  0
   -0.1435   -0.0305    0.0000 C   0  0  0  0  0  0  0  0  0  0  0  0
   -0.3984    0.7541    0.0000 O   0  0  0  0  0  0  0  0  0  0  0  0
    1.3556    0.1271    0.0000 C   0  0  0  0  0  0  0  0  0  0  0  0
    2.0701   -0.2854    0.0000 C   0  0  0  0  0  0  0  0  0  0  0  0
    2.0701   -1.1104    0.0000 C   0  0  0  0  0  0  0  0  0  0  0  0
    1.3556   -1.5229    0.0000 C   0  0  0  0  0  0  0  0  0  0  0  0
   -1.8659   -1.4124    0.0000 C   0  0  0  0  0  0  0  0  0  0  0  0
   -1.4534   -2.1269    0.0000 F   0  0  0  0  0  0  0  0  0  0  0  0
   -2.6909   -1.4124    0.0000 C   0  0  0  0  0  0  0  0  0  0  0  0
   -3.1034   -0.6979    0.0000 C   0  0  0  0  0  0  0  0  0  0  0  0
   -3.9284   -0.6979    0.0000 C   0  0  0  0  0  0  0  0  0  0  0  0
   -4.3409    0.0165    0.0000 O   0  0  0  0  0  0  0  0  0  0  0  0
   -4.3409   -1.4124    0.0000 N   0  0  0  0  0  0  0  0  0  0  0  0
   -5.1659   -1.4124    0.0000 C   0  0  0  0  0  0  0  0  0  0  0  0
   -5.5784   -2.1269    0.0000 C   0  0  0  0  0  0  0  0  0  0  0  0
   -6.4034   -2.1269    0.0000 C   0  0  0  0  0  0  0  0  0  0  0  0
   -6.8159   -1.4124    0.0000 N   0  0  0  0  0  0  0  0  0  0  0  0
   -7.6409   -1.4124    0.0000 S   0  0  0  0  0  0  0  0  0  0  0  0
   -8.4659   -1.4124    0.0000 C   0  0  0  0  0  0  0  0  0  0  0  0
   -7.6409   -0.5874    0.0000 O   0  0  0  0  0  0  0  0  0  0  0  0
   -7.6409   -2.2374    0.0000 O   0  0  0  0  0  0  0  0  0  0  0  0
   -6.4034   -0.6979    0.0000 C   0  0  0  0  0  0  0  0  0  0  0  0
   -5.5784   -0.6979    0.0000 C   0  0  0  0  0  0  0  0  0  0  0  0
   -1.8659    1.4455    0.0000 C   0  0  0  0  0  0  0  0  0  0  0  0
   -1.8659    0.6205    0.0000 F   0  0  0  0  0  0  0  0  0  0  0  0
   -1.8659    2.2705    0.0000 F   0  0  0  0  0  0  0  0  0  0  0  0
   -1.0409    1.4455    0.0000 F   0  0  0  0  0  0  0  0  0  0  0  0
  1  2  1  0  0  0  0
  2  3  1  0  0  0  0
  3  4  1  0  0  0  0
  4  5  4  0  0  0  0
  5  6  4  0  0  0  0
  6  7  1  0  0  0  0
  7  8  4  0  0  0  0
  8  9  4  0  0  0  0
  9 10  4  0  0  0  0
 10 11  4  0  0  0  0
  7 11  4  0  0  0  0
 11 12  2  0  0  0  0
 10 13  1  0  0  0  0
 13 14  1  0  0  0  0
 14 15  1  0  0  0  0
 15 16  1  0  0  0  0
  9 16  1  0  0  0  0
  6 17  4  0  0  0  0
 17 18  1  0  0  0  0
 17 19  4  0  0  0  0
 19 20  4  0  0  0  0
  4 20  4  0  0  0  0
 20 21  1  0  0  0  0
 21 22  2  0  0  0  0
 21 23  1  0  0  0  0
 23 24  1  0  0  0  0
 24 25  1  0  0  0  0
 25 26  1  0  0  0  0
 26 27  1  0  0  0  0
 27 28  1  0  0  0  0
 28 29  1  0  0  0  0
 28 30  2  0  0  0  0
 28 31  2  0  0  0  0
 27 32  1  0  0  0  0
 32 33  1  0  0  0  0
 24 33  1  0  0  0  0
  2 34  1  0  0  0  0
 34 35  1  0  0  0  0
 34 36  1  0  0  0  0
 34 37  1  0  0  0  0
M  END
> <IC50(uM)>
8.0

> <Outcome>
0.0

> <BindingDB ID>
1020435

> <BindingDB MonomerID>
490386

> <BindingDB Ligand Name>
5-fluoro-N-[1-(methylsulfonyl) piperidin-4-yl]-4-(3-oxo-5,6,7,8-tetrahydro[1,2,4]triazolo[4,3-a]pyridin-2(3H)-yl)-2-{[(2S)-1,1,1-trifluoropropan-2-yl]oxy}benzamide::US10968216, Example 54

> <Curation/DataSource>
US Patent

> <Article DOI>
?

> <PMID>
?

> <Patent Number>
US10968216

> <Authors>
Gradl, SN; Nguyen, D; Eis, K; Gunther, J; Stellfeld, T; Janzer, A; Christian, S; Mueller, T; Sheikh, SE; Zhou, HJ; Zhao, C; Sykes, DB; Ferrara, SJ; Liu, K; Herbert, SA; Merz, C; Niehues, M; Nising, CF; Schafer, M; Zimmermann, K; Knablein, J; Thede, K; Faupel, T

> <Link to Ligand in BindingDB>
http://www.bindingdb.org/bind/chemsearch/marvin/MolStructure.jsp?monomerid=490386

> <Link to Ligand-Target Pair in BindingDB>
http://www.bindingdb.org/jsp/dbsearch/PrimarySearch_ki.jsp?energyterm=kJ/mole&tag=r21&monomerid=490386&enzyme=Dihydroorotate+dehydrogenase&column=ki&startPg=0&Increment=50&submit=Search

> <PubChem CID>
134474302

> <PubChem SID>
447117113

$$$$

  Mrv2115 07222212352D          

 26 29  0  0  0  0            999 V2000
    7.9865   -0.7364    0.0000 C   0  0  0  0  0  0  0  0  0  0  0  0
    7.1660   -0.6502    0.0000 C   0  0  0  0  0  0  0  0  0  0  0  0
    6.8305    0.1035    0.0000 O   0  0  0  0  0  0  0  0  0  0  0  0
    6.0100    0.1898    0.0000 C   0  0  0  0  0  0  0  0  0  0  0  0
    5.5251   -0.4777    0.0000 O   0  0  0  0  0  0  0  0  0  0  0  0
    5.6744    0.9434    0.0000 C   0  0  0  0  0  0  0  0  0  0  0  0
    4.8675    1.1150    0.0000 S   0  0  0  0  0  0  0  0  0  0  0  0
    4.7812    1.9354    0.0000 C   0  0  0  0  0  0  0  0  0  0  0  0
    4.0668    2.3479    0.0000 N   0  0  0  0  0  0  0  0  0  0  0  0
    3.3523    1.9354    0.0000 C   0  0  0  0  0  0  0  0  0  0  0  0
    3.3523    1.1104    0.0000 C   0  0  0  0  0  0  0  0  0  0  0  0
    2.6378    0.6979    0.0000 C   0  0  0  0  0  0  0  0  0  0  0  0
    1.9233    1.1104    0.0000 C   0  0  0  0  0  0  0  0  0  0  0  0
    1.9233    1.9354    0.0000 C   0  0  0  0  0  0  0  0  0  0  0  0
    2.6378    2.3479    0.0000 C   0  0  0  0  0  0  0  0  0  0  0  0
    1.1387    2.1904    0.0000 O   0  0  0  0  0  0  0  0  0  0  0  0
    0.6538    1.5229    0.0000 C   0  0  0  0  0  0  0  0  0  0  0  0
    1.1387    0.8555    0.0000 O   0  0  0  0  0  0  0  0  0  0  0  0
    5.5349    2.2710    0.0000 N   0  0  0  0  0  0  0  0  0  0  0  0
    6.0869    1.6579    0.0000 C   0  0  0  0  0  0  0  0  0  0  0  0
    6.9074    1.7441    0.0000 C   0  0  0  0  0  0  0  0  0  0  0  0
    7.2430    2.4978    0.0000 C   0  0  0  0  0  0  0  0  0  0  0  0
    8.0635    2.5841    0.0000 C   0  0  0  0  0  0  0  0  0  0  0  0
    8.5484    1.9166    0.0000 C   0  0  0  0  0  0  0  0  0  0  0  0
    8.2128    1.1629    0.0000 C   0  0  0  0  0  0  0  0  0  0  0  0
    7.3923    1.0767    0.0000 C   0  0  0  0  0  0  0  0  0  0  0  0
  1  2  1  0  0  0  0
  2  3  1  0  0  0  0
  3  4  1  0  0  0  0
  4  5  2  0  0  0  0
  4  6  1  0  0  0  0
  6  7  4  0  0  0  0
  7  8  4  0  0  0  0
  8  9  1  0  0  0  0
  9 10  1  0  0  0  0
 10 11  4  0  0  0  0
 11 12  4  0  0  0  0
 12 13  4  0  0  0  0
 13 14  4  0  0  0  0
 14 15  4  0  0  0  0
 10 15  4  0  0  0  0
 14 16  1  0  0  0  0
 16 17  1  0  0  0  0
 17 18  1  0  0  0  0
 13 18  1  0  0  0  0
  8 19  4  0  0  0  0
 19 20  4  0  0  0  0
  6 20  4  0  0  0  0
 20 21  1  0  0  0  0
 21 22  4  0  0  0  0
 22 23  4  0  0  0  0
 23 24  4  0  0  0  0
 24 25  4  0  0  0  0
 25 26  4  0  0  0  0
 21 26  4  0  0  0  0
M  END
> <IC50(uM)>
1.108

> <Outcome>
0.0

> <BindingDB ID>
50312257

> <BindingDB MonomerID>
50071580

> <BindingDB Ligand Name>
CHEMBL3410608

> <Curation/DataSource>
ChEMBL

> <Article DOI>
10.1021/jm501127s

> <PMID>
25580811

> <Patent Number>
?

> <Authors>
Zhu, J; Han, L; Diao, Y; Ren, X; Xu, M; Xu, L; Li, S; Li, Q; Dong, D; Huang, J; Liu, X; Zhao, Z; Wang, R; Zhu, L; Xu, Y; Qian, X; Li, H

> <Link to Ligand in BindingDB>
http://www.bindingdb.org/bind/chemsearch/marvin/MolStructure.jsp?monomerid=50071580

> <Link to Ligand-Target Pair in BindingDB>
http://www.bindingdb.org/jsp/dbsearch/PrimarySearch_ki.jsp?energyterm=kJ/mole&tag=r21&monomerid=50071580&enzyme=Dihydroorotate+dehydrogenase&column=ki&startPg=0&Increment=50&submit=Search

> <PubChem CID>
118732518

> <PubChem SID>
313072543

$$$$

  Mrv2115 07222212352D          

 23 24  0  0  0  0            999 V2000
    3.4656    1.1759    0.0000 C   0  0  0  0  0  0  0  0  0  0  0  0
    2.7512    0.7634    0.0000 C   0  0  0  0  0  0  0  0  0  0  0  0
    2.7512   -0.0616    0.0000 N   0  0  0  0  0  0  0  0  0  0  0  0
    2.0367   -0.4741    0.0000 C   0  0  0  0  0  0  0  0  0  0  0  0
    1.3222   -0.0616    0.0000 O   0  0  0  0  0  0  0  0  0  0  0  0
    2.0367   -1.2991    0.0000 C   0  0  0  0  0  0  0  0  0  0  0  0
    2.7041   -1.7840    0.0000 N   0  0  0  0  0  0  0  0  0  0  0  0
    2.4492   -2.5687    0.0000 C   0  0  0  0  0  0  0  0  0  0  0  0
    2.9341   -3.2361    0.0000 C   0  0  0  0  0  0  0  0  0  0  0  0
    1.6242   -2.5687    0.0000 C   0  0  0  0  0  0  0  0  0  0  0  0
    1.1393   -3.2361    0.0000 C   0  0  0  0  0  0  0  0  0  0  0  0
    0.3188   -3.1499    0.0000 C   0  0  0  0  0  0  0  0  0  0  0  0
   -0.1661   -3.8173    0.0000 C   0  0  0  0  0  0  0  0  0  0  0  0
   -0.9866   -3.7311    0.0000 C   0  0  0  0  0  0  0  0  0  0  0  0
   -1.3222   -2.9774    0.0000 C   0  0  0  0  0  0  0  0  0  0  0  0
   -2.1426   -2.8911    0.0000 C   0  0  0  0  0  0  0  0  0  0  0  0
   -2.9631   -2.8049    0.0000 F   0  0  0  0  0  0  0  0  0  0  0  0
   -2.0564   -2.0707    0.0000 F   0  0  0  0  0  0  0  0  0  0  0  0
   -2.2289   -3.7116    0.0000 F   0  0  0  0  0  0  0  0  0  0  0  0
   -0.8372   -2.3099    0.0000 C   0  0  0  0  0  0  0  0  0  0  0  0
   -0.0168   -2.3962    0.0000 C   0  0  0  0  0  0  0  0  0  0  0  0
    1.3693   -1.7840    0.0000 C   0  0  0  0  0  0  0  0  0  0  0  0
    0.5846   -1.5291    0.0000 C   0  0  0  0  0  0  0  0  0  0  0  0
  1  2  1  0  0  0  0
  2  3  1  0  0  0  0
  3  4  1  0  0  0  0
  4  5  2  0  0  0  0
  4  6  1  0  0  0  0
  6  7  4  0  0  0  0
  7  8  4  0  0  0  0
  8  9  1  0  0  0  0
  8 10  4  0  0  0  0
 10 11  1  0  0  0  0
 11 12  1  0  0  0  0
 12 13  4  0  0  0  0
 13 14  4  0  0  0  0
 14 15  4  0  0  0  0
 15 16  1  0  0  0  0
 16 17  1  0  0  0  0
 16 18  1  0  0  0  0
 16 19  1  0  0  0  0
 15 20  4  0  0  0  0
 20 21  4  0  0  0  0
 12 21  4  0  0  0  0
 10 22  4  0  0  0  0
  6 22  4  0  0  0  0
 22 23  1  0  0  0  0
M  STY  1   1 DAT
M  SAL   1  1   7
M  SDT   1 MRV_IMPLICIT_H                                        
M  SDD   1     0.5304   -0.4125    DR    ALL  0       0  
M  SED   1 IMPL_H1
M  END
> <IC50(uM)>
100.0

> <Outcome>
0.0

> <BindingDB ID>
51330085

> <BindingDB MonomerID>
50538333

> <BindingDB Ligand Name>
CHEMBL4638564

> <Curation/DataSource>
ChEMBL

> <Article DOI>
10.1021/acs.jmedchem.0c00311

> <PMID>
32248693

> <Patent Number>
?

> <Authors>
Kokkonda, S; Deng, X; White, KL; El Mazouni, F; White, J; Shackleford, DM; Katneni, K; Chiu, FCK; Barker, H; McLaren, J; Crighton, E; Chen, G; Angulo-Barturen, I; Jimenez-Diaz, MB; Ferrer, S; Huertas-Valentin, L; Martinez-Martinez, MS; Lafuente-Monasterio, MJ; Chittimalla, R; Shahi, SP; Wittlin, S; Waterson, D; Burrows, JN; Matthews, D; Tomchick, D; Rathod, PK; Palmer, MJ; Charman, SA; Phillips, MA

> <Link to Ligand in BindingDB>
http://www.bindingdb.org/bind/chemsearch/marvin/MolStructure.jsp?monomerid=50538333

> <Link to Ligand-Target Pair in BindingDB>
http://www.bindingdb.org/jsp/dbsearch/PrimarySearch_ki.jsp?energyterm=kJ/mole&tag=r21&monomerid=50538333&enzyme=Dihydroorotate+dehydrogenase&column=ki&startPg=0&Increment=50&submit=Search

> <PubChem CID>
156011734

> <PubChem SID>
442139896

$$$$

  Mrv2115 07222212352D          

 24 25  0  0  0  0            999 V2000
    0.0000   -4.9500    0.0000 C   0  0  0  0  0  0  0  0  0  0  0  0
    0.7145   -5.3625    0.0000 C   0  0  0  0  0  0  0  0  0  0  0  0
    0.7145   -6.1875    0.0000 O   0  0  0  0  0  0  0  0  0  0  0  0
    1.4289   -4.9500    0.0000 C   0  0  0  0  0  0  0  0  0  0  0  0
    1.4289   -4.1250    0.0000 C   0  0  0  0  0  0  0  0  0  0  0  0
    1.4289   -3.3000    0.0000 N   0  0  0  0  0  0  0  0  0  0  0  0
    2.1434   -5.3625    0.0000 C   0  0  0  0  0  0  0  0  0  0  0  0
    2.1434   -6.1875    0.0000 O   0  0  0  0  0  0  0  0  0  0  0  0
    2.8579   -4.9500    0.0000 N   0  0  0  0  0  0  0  0  0  0  0  0
    3.5724   -5.3625    0.0000 C   0  0  0  0  0  0  0  0  0  0  0  0
    4.2868   -4.9500    0.0000 C   0  0  0  0  0  0  0  0  0  0  0  0
    5.0013   -5.3625    0.0000 C   0  0  0  0  0  0  0  0  0  0  0  0
    5.0013   -6.1875    0.0000 C   0  0  0  0  0  0  0  0  0  0  0  0
    5.7158   -6.6000    0.0000 C   0  0  0  0  0  0  0  0  0  0  0  0
    6.4302   -6.1875    0.0000 C   0  0  0  0  0  0  0  0  0  0  0  0
    6.4302   -5.3625    0.0000 Cl  0  0  0  0  0  0  0  0  0  0  0  0
    7.1447   -6.6000    0.0000 C   0  0  0  0  0  0  0  0  0  0  0  0
    7.1447   -7.4250    0.0000 C   0  0  0  0  0  0  0  0  0  0  0  0
    6.4302   -7.8375    0.0000 C   0  0  0  0  0  0  0  0  0  0  0  0
    5.7158   -7.4250    0.0000 C   0  0  0  0  0  0  0  0  0  0  0  0
    5.0013   -7.8375    0.0000 Cl  0  0  0  0  0  0  0  0  0  0  0  0
    4.2868   -6.6000    0.0000 C   0  0  0  0  0  0  0  0  0  0  0  0
    3.5724   -6.1875    0.0000 C   0  0  0  0  0  0  0  0  0  0  0  0
    2.8579   -6.6000    0.0000 Cl  0  0  0  0  0  0  0  0  0  0  0  0
  1  2  1  0  0  0  0
  2  3  2  0  0  0  0
  2  4  1  0  0  0  0
  4  5  1  0  0  0  0
  5  6  3  0  0  0  0
  4  7  1  0  0  0  0
  7  8  2  0  0  0  0
  7  9  1  0  0  0  0
  9 10  1  0  0  0  0
 10 11  4  0  0  0  0
 11 12  4  0  0  0  0
 12 13  4  0  0  0  0
 13 14  1  0  0  0  0
 14 15  4  0  0  0  0
 15 16  1  0  0  0  0
 15 17  4  0  0  0  0
 17 18  4  0  0  0  0
 18 19  4  0  0  0  0
 19 20  4  0  0  0  0
 14 20  4  0  0  0  0
 20 21  1  0  0  0  0
 13 22  4  0  0  0  0
 22 23  4  0  0  0  0
 10 23  4  0  0  0  0
 23 24  1  0  0  0  0
M  END
> <IC50(uM)>
16.5

> <Outcome>
0.0

> <BindingDB ID>
52791

> <BindingDB MonomerID>
29031

> <BindingDB Ligand Name>
cyanohydroxybutenamide, 21

> <Curation/DataSource>
Curated from the literature by BindingDB

> <Article DOI>
10.1021/jm800963t

> <PMID>
19351152

> <Patent Number>
?

> <Authors>
Davies, M; Heikkil&auml;, T; McConkey, GA; Fishwick, CW; Parsons, MR; Johnson, AP

> <Link to Ligand in BindingDB>
http://www.bindingdb.org/bind/chemsearch/marvin/MolStructure.jsp?monomerid=29031

> <Link to Ligand-Target Pair in BindingDB>
http://www.bindingdb.org/jsp/dbsearch/PrimarySearch_ki.jsp?energyterm=kJ/mole&tag=r21&monomerid=29031&enzyme=Dihydroorotate+dehydrogenase&column=ki&startPg=0&Increment=50&submit=Search

> <PubChem CID>
91896057

> <PubChem SID>
81054460

$$$$

  Mrv2115 07222212352D          

 25 29  0  0  0  0            999 V2000
    0.2768   -2.9906    0.0000 O   0  0  0  0  0  0  0  0  0  0  0  0
    0.8288   -2.3775    0.0000 C   0  0  0  0  0  0  0  0  0  0  0  0
    0.5739   -1.5929    0.0000 C   0  0  0  0  0  0  0  0  0  0  0  0
   -0.2331   -1.4213    0.0000 C   0  0  0  0  0  0  0  0  0  0  0  0
   -0.4880   -0.6367    0.0000 C   0  0  0  0  0  0  0  0  0  0  0  0
    0.0640   -0.0236    0.0000 C   0  0  0  0  0  0  0  0  0  0  0  0
    0.8710   -0.1952    0.0000 C   0  0  0  0  0  0  0  0  0  0  0  0
    1.1259   -0.9798    0.0000 C   0  0  0  0  0  0  0  0  0  0  0  0
    1.9329   -1.1513    0.0000 C   0  0  0  0  0  0  0  0  0  0  0  0
    2.4849   -0.5382    0.0000 O   0  0  0  0  0  0  0  0  0  0  0  0
    2.1878   -1.9359    0.0000 C   0  0  0  0  0  0  0  0  0  0  0  0
    1.6358   -2.5490    0.0000 C   0  0  0  0  0  0  0  0  0  0  0  0
    2.0483   -3.2635    0.0000 N   0  0  0  0  0  0  0  0  0  0  0  0
    2.8553   -3.0920    0.0000 N   0  0  0  0  0  0  0  0  0  0  0  0
    2.9415   -2.2715    0.0000 N   0  0  0  0  0  0  0  0  0  0  0  0
    3.6560   -1.8590    0.0000 C   0  0  0  0  0  0  0  0  0  0  0  0
    3.6560   -1.0340    0.0000 C   0  0  0  0  0  0  0  0  0  0  0  0
    4.3705   -0.6215    0.0000 C   0  0  0  0  0  0  0  0  0  0  0  0
    5.0849   -1.0340    0.0000 C   0  0  0  0  0  0  0  0  0  0  0  0
    5.7994   -0.6215    0.0000 C   0  0  0  0  0  0  0  0  0  0  0  0
    6.5139   -1.0340    0.0000 C   0  0  0  0  0  0  0  0  0  0  0  0
    6.5139   -1.8590    0.0000 C   0  0  0  0  0  0  0  0  0  0  0  0
    5.7994   -2.2715    0.0000 C   0  0  0  0  0  0  0  0  0  0  0  0
    5.0849   -1.8590    0.0000 C   0  0  0  0  0  0  0  0  0  0  0  0
    4.3705   -2.2715    0.0000 C   0  0  0  0  0  0  0  0  0  0  0  0
  1  2  2  0  0  0  0
  2  3  1  0  0  0  0
  3  4  4  0  0  0  0
  4  5  4  0  0  0  0
  5  6  4  0  0  0  0
  6  7  4  0  0  0  0
  7  8  4  0  0  0  0
  3  8  4  0  0  0  0
  8  9  1  0  0  0  0
  9 10  2  0  0  0  0
  9 11  1  0  0  0  0
 11 12  4  0  0  0  0
  2 12  1  0  0  0  0
 12 13  4  0  0  0  0
 13 14  4  0  0  0  0
 14 15  4  0  0  0  0
 11 15  4  0  0  0  0
 15 16  1  0  0  0  0
 16 17  4  0  0  0  0
 17 18  4  0  0  0  0
 18 19  4  0  0  0  0
 19 20  4  0  0  0  0
 20 21  4  0  0  0  0
 21 22  4  0  0  0  0
 22 23  4  0  0  0  0
 23 24  4  0  0  0  0
 19 24  4  0  0  0  0
 24 25  4  0  0  0  0
 16 25  4  0  0  0  0
M  END
> <IC50(uM)>
1.0

> <Outcome>
1.0

> <BindingDB ID>
51338174

> <BindingDB MonomerID>
50541648

> <BindingDB Ligand Name>
CHEMBL4634999

> <Curation/DataSource>
ChEMBL

> <Article DOI>
10.1021/acs.jmedchem.0c00512

> <PMID>
32496056

> <Patent Number>
?

> <Authors>
Zuo, Z; Liu, X; Qian, X; Zeng, T; Sang, N; Liu, H; Zhou, Y; Tao, L; Zhou, X; Su, N; Yu, Y; Chen, Q; Luo, Y; Zhao, Y

> <Link to Ligand in BindingDB>
http://www.bindingdb.org/bind/chemsearch/marvin/MolStructure.jsp?monomerid=50541648

> <Link to Ligand-Target Pair in BindingDB>
http://www.bindingdb.org/jsp/dbsearch/PrimarySearch_ki.jsp?energyterm=kJ/mole&tag=r21&monomerid=50541648&enzyme=Dihydroorotate+dehydrogenase&column=ki&startPg=0&Increment=50&submit=Search

> <PubChem CID>
156014177

> <PubChem SID>
442143211

$$$$

  Mrv2115 07222212352D          

 29 32  0  0  0  0            999 V2000
    0.0000   -1.6500    0.0000 C   0  0  0  0  0  0  0  0  0  0  0  0
    0.7145   -1.2375    0.0000 C   0  0  0  0  0  0  0  0  0  0  0  0
    0.7145   -0.4125    0.0000 C   0  0  0  0  0  0  0  0  0  0  0  0
    0.0000    0.0000    0.0000 C   0  0  0  0  0  0  0  0  0  0  0  0
   -0.7145   -0.4125    0.0000 C   0  0  0  0  0  0  0  0  0  0  0  0
   -1.4289    0.0000    0.0000 C   0  0  0  0  0  0  0  0  0  0  0  0
   -1.4289    0.8250    0.0000 C   0  0  0  0  0  0  0  0  0  0  0  0
   -2.1434    1.2375    0.0000 C   0  0  0  0  0  0  0  0  0  0  0  0
   -2.8579    0.8250    0.0000 C   0  0  0  0  0  0  0  0  0  0  0  0
   -3.5724    1.2375    0.0000 C   0  0  0  0  0  0  0  0  0  0  0  0
   -3.5724    2.0625    0.0000 C   0  0  0  0  0  0  0  0  0  0  0  0
   -2.8579    2.4750    0.0000 C   0  0  0  0  0  0  0  0  0  0  0  0
   -2.1434    2.0625    0.0000 C   0  0  0  0  0  0  0  0  0  0  0  0
   -1.4289    2.4750    0.0000 F   0  0  0  0  0  0  0  0  0  0  0  0
   -0.7145    1.2375    0.0000 C   0  0  0  0  0  0  0  0  0  0  0  0
    0.0000    0.8250    0.0000 C   0  0  0  0  0  0  0  0  0  0  0  0
    1.4289    0.0000    0.0000 N   0  0  0  0  0  0  0  0  0  0  0  0
    2.1434   -0.4125    0.0000 C   0  0  0  0  0  0  0  0  0  0  0  0
    2.8579    0.0000    0.0000 C   0  0  0  0  0  0  0  0  0  0  0  0
    3.5724   -0.4125    0.0000 C   0  0  0  0  0  0  0  0  0  0  0  0
    3.5724   -1.2375    0.0000 C   0  0  0  0  0  0  0  0  0  0  0  0
    4.2868   -1.6500    0.0000 F   0  0  0  0  0  0  0  0  0  0  0  0
    2.8579   -1.6500    0.0000 C   0  0  0  0  0  0  0  0  0  0  0  0
    2.1434   -1.2375    0.0000 C   0  0  0  0  0  0  0  0  0  0  0  0
    1.4289   -1.6500    0.0000 C   0  0  0  0  0  0  0  0  0  0  0  0
    1.4289   -2.4750    0.0000 C   0  0  0  0  0  0  0  0  0  0  0  0
    0.7145   -2.8875    0.0000 O   0  0  0  0  0  0  0  0  0  0  0  0
    2.1434   -2.8875    0.0000 N   0  0  0  0  0  0  0  0  0  0  0  0
    2.1434   -3.7125    0.0000 O   0  0  0  0  0  0  0  0  0  0  0  0
  1  2  1  0  0  0  0
  2  3  4  0  0  0  0
  3  4  1  0  0  0  0
  4  5  4  0  0  0  0
  5  6  4  0  0  0  0
  6  7  4  0  0  0  0
  7  8  1  0  0  0  0
  8  9  4  0  0  0  0
  9 10  4  0  0  0  0
 10 11  4  0  0  0  0
 11 12  4  0  0  0  0
 12 13  4  0  0  0  0
  8 13  4  0  0  0  0
 13 14  1  0  0  0  0
  7 15  4  0  0  0  0
 15 16  4  0  0  0  0
  4 16  4  0  0  0  0
  3 17  4  0  0  0  0
 17 18  4  0  0  0  0
 18 19  4  0  0  0  0
 19 20  4  0  0  0  0
 20 21  4  0  0  0  0
 21 22  1  0  0  0  0
 21 23  4  0  0  0  0
 23 24  4  0  0  0  0
 18 24  4  0  0  0  0
 24 25  4  0  0  0  0
  2 25  4  0  0  0  0
 25 26  1  0  0  0  0
 26 27  2  0  0  0  0
 26 28  1  0  0  0  0
 28 29  1  0  0  0  0
M  END
> <IC50(uM)>
0.0014

> <Outcome>
1.0

> <BindingDB ID>
51370197

> <BindingDB MonomerID>
50554025

> <BindingDB Ligand Name>
CHEMBL4759615

> <Curation/DataSource>
ChEMBL

> <Article DOI>
?

> <PMID>
33007394

> <Patent Number>
?

> <Authors>
DeRatt, LG; Christine Pietsch, E; Tanner, A; Shaffer, P; Jacoby, E; Wang, W; Kazmi, F; Zhang, X; Attar, RM; Edwards, JP; Kuduk, SD

> <Link to Ligand in BindingDB>
http://www.bindingdb.org/bind/chemsearch/marvin/MolStructure.jsp?monomerid=50554025

> <Link to Ligand-Target Pair in BindingDB>
http://www.bindingdb.org/jsp/dbsearch/PrimarySearch_ki.jsp?energyterm=kJ/mole&tag=r21&monomerid=50554025&enzyme=Dihydroorotate+dehydrogenase&column=ki&startPg=0&Increment=50&submit=Search

> <PubChem CID>
162657691

> <PubChem SID>
461692793

$$$$

  Mrv2115 07222212352D          

 26 29  0  0  0  0            999 V2000
    1.8500    2.0625    0.0000 O   0  0  0  0  0  0  0  0  0  0  0  0
    2.5645    2.4750    0.0000 C   0  0  0  0  0  0  0  0  0  0  0  0
    3.2789    2.0625    0.0000 N   0  0  0  0  0  0  0  0  0  0  0  0
    3.2789    1.2375    0.0000 C   0  0  0  0  0  0  0  0  0  0  0  0
    3.9934    0.8250    0.0000 C   0  0  0  0  0  0  0  0  0  0  0  0
    3.9934    0.0000    0.0000 C   0  0  0  0  0  0  0  0  0  0  0  0
    3.2789   -0.4125    0.0000 C   0  0  0  0  0  0  0  0  0  0  0  0
    2.5645    0.0000    0.0000 C   0  0  0  0  0  0  0  0  0  0  0  0
    2.5645    0.8250    0.0000 C   0  0  0  0  0  0  0  0  0  0  0  0
    1.7798    1.0799    0.0000 C   0  0  0  0  0  0  0  0  0  0  0  0
    1.2949    0.4125    0.0000 N   0  0  0  0  0  0  0  0  0  0  0  0
    1.7798   -0.2549    0.0000 N   0  0  0  0  0  0  0  0  0  0  0  0
    1.5249   -1.0396    0.0000 C   0  0  0  0  0  0  0  0  0  0  0  0
    2.0769   -1.6527    0.0000 C   0  0  0  0  0  0  0  0  0  0  0  0
    1.8220   -2.4373    0.0000 C   0  0  0  0  0  0  0  0  0  0  0  0
    1.0150   -2.6088    0.0000 C   0  0  0  0  0  0  0  0  0  0  0  0
    0.4630   -1.9957    0.0000 C   0  0  0  0  0  0  0  0  0  0  0  0
    0.7179   -1.2111    0.0000 C   0  0  0  0  0  0  0  0  0  0  0  0
    0.1659   -0.5980    0.0000 F   0  0  0  0  0  0  0  0  0  0  0  0
    2.5645    3.3000    0.0000 C   0  0  0  0  0  0  0  0  0  0  0  0
    1.8500    3.7125    0.0000 C   0  0  0  0  0  0  0  0  0  0  0  0
    1.8500    4.5375    0.0000 C   0  0  0  0  0  0  0  0  0  0  0  0
    1.1355    4.9500    0.0000 F   0  0  0  0  0  0  0  0  0  0  0  0
    2.5645    4.9500    0.0000 C   0  0  0  0  0  0  0  0  0  0  0  0
    3.2789    4.5375    0.0000 C   0  0  0  0  0  0  0  0  0  0  0  0
    3.2789    3.7125    0.0000 N   0  0  0  0  0  0  0  0  0  0  0  0
  1  2  2  0  0  0  0
  2  3  1  0  0  0  0
  3  4  1  0  0  0  0
  4  5  1  0  0  0  0
  5  6  1  0  0  0  0
  6  7  1  0  0  0  0
  7  8  1  0  0  0  0
  8  9  4  0  0  0  0
  4  9  1  0  0  0  0
  9 10  4  0  0  0  0
 10 11  4  0  0  0  0
 11 12  4  0  0  0  0
  8 12  4  0  0  0  0
 12 13  1  0  0  0  0
 13 14  4  0  0  0  0
 14 15  4  0  0  0  0
 15 16  4  0  0  0  0
 16 17  4  0  0  0  0
 17 18  4  0  0  0  0
 13 18  4  0  0  0  0
 18 19  1  0  0  0  0
  2 20  1  0  0  0  0
 20 21  4  0  0  0  0
 21 22  4  0  0  0  0
 22 23  1  0  0  0  0
 22 24  4  0  0  0  0
 24 25  4  0  0  0  0
 25 26  4  0  0  0  0
 20 26  4  0  0  0  0
M  END
> <IC50(uM)>
0.0405

> <Outcome>
1.0

> <BindingDB ID>
51334947; 993115

> <BindingDB MonomerID>
477617

> <BindingDB Ligand Name>
4-fluoro-N-[(4R)-1-(2-fluorophenyl)-4,5,6,7-tetrahydro-1H-indazol-4-yl]pyridine-2-carboxamide::US10889564, Example 47

> <Curation/DataSource>
ChEMBL; US Patent

> <Article DOI>
10.1021/acs.jmedchem.9b01658; ?

> <PMID>
32212728; ?

> <Patent Number>
?; US10889564

> <Authors>
Popova, G; Ladds, MJGW; Johansson, L; Saleh, A; Larsson, J; Sandberg, L; Sahlberg, SH; Qian, W; Gullberg, H; Garg, N; Gustavsson, AL; Haraldsson, M; Lane, D; Yngve, U; Lain, S; Lain, S; Drummond, C; Leeuwen, IV; Haraldsson, M; Johansson, L; Sandberg, L; Yngve, U

> <Link to Ligand in BindingDB>
http://www.bindingdb.org/bind/chemsearch/marvin/MolStructure.jsp?monomerid=477617

> <Link to Ligand-Target Pair in BindingDB>
http://www.bindingdb.org/jsp/dbsearch/PrimarySearch_ki.jsp?energyterm=kJ/mole&tag=r21&monomerid=477617&enzyme=Dihydroorotate+dehydrogenase&column=ki&startPg=0&Increment=50&submit=Search

> <PubChem CID>
129104747

> <PubChem SID>
442137234

$$$$

  Mrv2115 07222212352D          

 29 32  0  0  0  0            999 V2000
    0.8838   -2.1500    0.0000 C   0  0  0  0  0  0  0  0  0  0  0  0
    1.1387   -1.3654    0.0000 N   0  0  0  0  0  0  0  0  0  0  0  0
    0.6538   -0.6979    0.0000 N   0  0  0  0  0  0  0  0  0  0  0  0
    1.1387   -0.0305    0.0000 N   0  0  0  0  0  0  0  0  0  0  0  0
    1.9233   -0.2854    0.0000 C   0  0  0  0  0  0  0  0  0  0  0  0
    2.6378    0.1271    0.0000 C   0  0  0  0  0  0  0  0  0  0  0  0
    3.3523   -0.2854    0.0000 C   0  0  0  0  0  0  0  0  0  0  0  0
    4.0668    0.1271    0.0000 C   0  0  0  0  0  0  0  0  0  0  0  0
    4.0668    0.9521    0.0000 C   0  0  0  0  0  0  0  0  0  0  0  0
    3.3523    1.3646    0.0000 F   0  0  0  0  0  0  0  0  0  0  0  0
    4.7812    1.3646    0.0000 C   0  0  0  0  0  0  0  0  0  0  0  0
    4.7812    2.1896    0.0000 F   0  0  0  0  0  0  0  0  0  0  0  0
    5.4957    0.9521    0.0000 C   0  0  0  0  0  0  0  0  0  0  0  0
    6.2102    1.3646    0.0000 C   0  0  0  0  0  0  0  0  0  0  0  0
    6.2102    2.1896    0.0000 C   0  0  0  0  0  0  0  0  0  0  0  0
    6.9246    2.6021    0.0000 C   0  0  0  0  0  0  0  0  0  0  0  0
    7.6391    2.1896    0.0000 C   0  0  0  0  0  0  0  0  0  0  0  0
    7.6391    1.3646    0.0000 C   0  0  0  0  0  0  0  0  0  0  0  0
    6.9246    0.9521    0.0000 C   0  0  0  0  0  0  0  0  0  0  0  0
    5.4957    0.1271    0.0000 C   0  0  0  0  0  0  0  0  0  0  0  0
    6.2102   -0.2854    0.0000 F   0  0  0  0  0  0  0  0  0  0  0  0
    4.7812   -0.2854    0.0000 C   0  0  0  0  0  0  0  0  0  0  0  0
    4.7812   -1.1104    0.0000 F   0  0  0  0  0  0  0  0  0  0  0  0
    3.3523   -1.1104    0.0000 C   0  0  0  0  0  0  0  0  0  0  0  0
    2.6378   -1.5229    0.0000 C   0  0  0  0  0  0  0  0  0  0  0  0
    2.6378   -2.3479    0.0000 C   0  0  0  0  0  0  0  0  0  0  0  0
    1.9233   -2.7604    0.0000 O   0  0  0  0  0  0  0  0  0  0  0  0
    3.3523   -2.7604    0.0000 O   0  0  0  0  0  0  0  0  0  0  0  0
    1.9233   -1.1104    0.0000 C   0  0  0  0  0  0  0  0  0  0  0  0
  1  2  1  0  0  0  0
  2  3  4  0  0  0  0
  3  4  4  0  0  0  0
  4  5  4  0  0  0  0
  5  6  4  0  0  0  0
  6  7  4  0  0  0  0
  7  8  1  0  0  0  0
  8  9  4  0  0  0  0
  9 10  1  0  0  0  0
  9 11  4  0  0  0  0
 11 12  1  0  0  0  0
 11 13  4  0  0  0  0
 13 14  1  0  0  0  0
 14 15  4  0  0  0  0
 15 16  4  0  0  0  0
 16 17  4  0  0  0  0
 17 18  4  0  0  0  0
 18 19  4  0  0  0  0
 14 19  4  0  0  0  0
 13 20  4  0  0  0  0
 20 21  1  0  0  0  0
 20 22  4  0  0  0  0
  8 22  4  0  0  0  0
 22 23  1  0  0  0  0
  7 24  4  0  0  0  0
 24 25  4  0  0  0  0
 25 26  1  0  0  0  0
 26 27  2  0  0  0  0
 26 28  1  0  0  0  0
 25 29  4  0  0  0  0
  5 29  4  0  0  0  0
  2 29  4  0  0  0  0
M  END
> <IC50(uM)>
0.1

> <Outcome>
1.0

> <BindingDB ID>
1100162

> <BindingDB MonomerID>
520621

> <BindingDB Ligand Name>
1-methyl-5-(2,3,5,6-tetrafluoro-[1,1'-biphenyl]-4-yl)-1H-benzo[d][1,2,3]triazole- 7-carboxylic acid;::US11147801, Compound 19

> <Curation/DataSource>
US Patent

> <Article DOI>
?

> <PMID>
?

> <Patent Number>
US11147801

> <Authors>
Nellore, K; Hosahalli, S

> <Link to Ligand in BindingDB>
http://www.bindingdb.org/bind/chemsearch/marvin/MolStructure.jsp?monomerid=520621

> <Link to Ligand-Target Pair in BindingDB>
http://www.bindingdb.org/jsp/dbsearch/PrimarySearch_ki.jsp?energyterm=kJ/mole&tag=r21&monomerid=520621&enzyme=Dihydroorotate+dehydrogenase&column=ki&startPg=0&Increment=50&submit=Search

> <PubChem CID>
?

> <PubChem SID>
?

$$$$

  Mrv2115 07222212352D          

 34 37  0  0  0  0            999 V2000
   -5.3959    1.4686    0.0000 C   0  0  0  0  0  0  0  0  0  0  0  0
   -5.6509    0.6840    0.0000 C   0  0  0  0  0  0  0  0  0  0  0  0
   -6.4355    0.4290    0.0000 N   0  0  0  0  0  0  0  0  0  0  0  0
   -6.4355   -0.3960    0.0000 O   0  0  0  0  0  0  0  0  0  0  0  0
   -5.6509   -0.6509    0.0000 C   0  0  0  0  0  0  0  0  0  0  0  0
   -5.3959   -1.4355    0.0000 C   0  0  0  0  0  0  0  0  0  0  0  0
   -5.1659    0.0165    0.0000 C   0  0  0  0  0  0  0  0  0  0  0  0
   -4.3409    0.0165    0.0000 N   0  0  0  0  0  0  0  0  0  0  0  0
   -3.9284   -0.6979    0.0000 C   0  0  0  0  0  0  0  0  0  0  0  0
   -4.3409   -1.4124    0.0000 O   0  0  0  0  0  0  0  0  0  0  0  0
   -3.1034   -0.6979    0.0000 C   0  0  0  0  0  0  0  0  0  0  0  0
   -2.6909    0.0165    0.0000 C   0  0  0  0  0  0  0  0  0  0  0  0
   -1.8659    0.0165    0.0000 C   0  0  0  0  0  0  0  0  0  0  0  0
   -1.4534    0.7310    0.0000 F   0  0  0  0  0  0  0  0  0  0  0  0
   -1.4534   -0.6979    0.0000 C   0  0  0  0  0  0  0  0  0  0  0  0
   -0.6284   -0.6979    0.0000 N   0  0  0  0  0  0  0  0  0  0  0  0
   -0.1435   -1.3654    0.0000 N   0  0  0  0  0  0  0  0  0  0  0  0
    0.6411   -1.1104    0.0000 C   0  0  0  0  0  0  0  0  0  0  0  0
    0.6411   -0.2854    0.0000 N   0  0  0  0  0  0  0  0  0  0  0  0
   -0.1435   -0.0305    0.0000 C   0  0  0  0  0  0  0  0  0  0  0  0
   -0.3984    0.7541    0.0000 O   0  0  0  0  0  0  0  0  0  0  0  0
    1.3556    0.1271    0.0000 C   0  0  0  0  0  0  0  0  0  0  0  0
    2.0701   -0.2854    0.0000 C   0  0  0  0  0  0  0  0  0  0  0  0
    2.0701   -1.1104    0.0000 C   0  0  0  0  0  0  0  0  0  0  0  0
    1.3556   -1.5229    0.0000 C   0  0  0  0  0  0  0  0  0  0  0  0
   -1.8659   -1.4124    0.0000 C   0  0  0  0  0  0  0  0  0  0  0  0
   -2.6909   -1.4124    0.0000 C   0  0  0  0  0  0  0  0  0  0  0  0
   -3.1034   -2.1269    0.0000 O   0  0  0  0  0  0  0  0  0  0  0  0
   -2.6909   -2.8414    0.0000 C   0  0  0  0  0  0  0  0  0  0  0  0
   -1.8659   -2.8414    0.0000 C   0  0  0  0  0  0  0  0  0  0  0  0
   -3.1034   -3.5558    0.0000 C   0  0  0  0  0  0  0  0  0  0  0  0
   -3.8179   -3.1433    0.0000 F   0  0  0  0  0  0  0  0  0  0  0  0
   -2.3890   -3.9683    0.0000 F   0  0  0  0  0  0  0  0  0  0  0  0
   -3.5159   -4.2703    0.0000 F   0  0  0  0  0  0  0  0  0  0  0  0
  1  2  1  0  0  0  0
  2  3  4  0  0  0  0
  3  4  4  0  0  0  0
  4  5  4  0  0  0  0
  5  6  1  0  0  0  0
  5  7  4  0  0  0  0
  2  7  4  0  0  0  0
  7  8  1  0  0  0  0
  8  9  1  0  0  0  0
  9 10  2  0  0  0  0
  9 11  1  0  0  0  0
 11 12  4  0  0  0  0
 12 13  4  0  0  0  0
 13 14  1  0  0  0  0
 13 15  4  0  0  0  0
 15 16  1  0  0  0  0
 16 17  4  0  0  0  0
 17 18  4  0  0  0  0
 18 19  4  0  0  0  0
 19 20  4  0  0  0  0
 16 20  4  0  0  0  0
 20 21  2  0  0  0  0
 19 22  1  0  0  0  0
 22 23  1  0  0  0  0
 23 24  1  0  0  0  0
 24 25  1  0  0  0  0
 18 25  1  0  0  0  0
 15 26  4  0  0  0  0
 26 27  4  0  0  0  0
 11 27  4  0  0  0  0
 27 28  1  0  0  0  0
 28 29  1  0  0  0  0
 29 30  1  0  0  0  0
 29 31  1  0  0  0  0
 31 32  1  0  0  0  0
 31 33  1  0  0  0  0
 31 34  1  0  0  0  0
M  END
> <IC50(uM)>
0.17

> <Outcome>
1.0

> <BindingDB ID>
1020421

> <BindingDB MonomerID>
490372

> <BindingDB Ligand Name>
N-(3,5-dimethyl-1,2-oxazol-4-yl)-5-fluoro-4-(3-oxo-5,6,7,8-tetrahydro[1,2,4]triazolo[4,3-a]-pyridin-2(3H)-yl)-2-{[(2S)-1,1,1-trifluoropropan-2-yl]oxy}benzamide::US10968216, Example 40

> <Curation/DataSource>
US Patent

> <Article DOI>
?

> <PMID>
?

> <Patent Number>
US10968216

> <Authors>
Gradl, SN; Nguyen, D; Eis, K; Gunther, J; Stellfeld, T; Janzer, A; Christian, S; Mueller, T; Sheikh, SE; Zhou, HJ; Zhao, C; Sykes, DB; Ferrara, SJ; Liu, K; Herbert, SA; Merz, C; Niehues, M; Nising, CF; Schafer, M; Zimmermann, K; Knablein, J; Thede, K; Faupel, T

> <Link to Ligand in BindingDB>
http://www.bindingdb.org/bind/chemsearch/marvin/MolStructure.jsp?monomerid=490372

> <Link to Ligand-Target Pair in BindingDB>
http://www.bindingdb.org/jsp/dbsearch/PrimarySearch_ki.jsp?energyterm=kJ/mole&tag=r21&monomerid=490372&enzyme=Dihydroorotate+dehydrogenase&column=ki&startPg=0&Increment=50&submit=Search

> <PubChem CID>
134474106

> <PubChem SID>
447117099

$$$$

  Mrv2115 07222212352D          

 35 37  0  0  0  0            999 V2000
    4.2868   -2.4750    0.0000 C   0  0  0  0  0  0  0  0  0  0  0  0
    3.5724   -2.8875    0.0000 C   0  0  0  0  0  0  0  0  0  0  0  0
    2.8579   -2.4750    0.0000 O   0  0  0  0  0  0  0  0  0  0  0  0
    2.1434   -2.8875    0.0000 C   0  0  0  0  0  0  0  0  0  0  0  0
    2.1434   -3.7125    0.0000 C   0  0  0  0  0  0  0  0  0  0  0  0
    1.4289   -4.1250    0.0000 C   0  0  0  0  0  0  0  0  0  0  0  0
    1.4289   -4.9500    0.0000 N   0  0  0  0  0  0  0  0  0  0  0  0
    2.0964   -5.4349    0.0000 N   0  0  0  0  0  0  0  0  0  0  0  0
    1.8414   -6.2195    0.0000 C   0  0  0  0  0  0  0  0  0  0  0  0
    2.3264   -6.8870    0.0000 C   0  0  0  0  0  0  0  0  0  0  0  0
    2.8113   -7.5544    0.0000 C   0  0  0  0  0  0  0  0  0  0  0  0
    2.9938   -6.4021    0.0000 C   0  0  0  0  0  0  0  0  0  0  0  0
    1.6589   -7.3719    0.0000 O   0  0  0  0  0  0  0  0  0  0  0  0
    1.0164   -6.2195    0.0000 N   0  0  0  0  0  0  0  0  0  0  0  0
    0.5315   -6.8870    0.0000 C   0  0  0  0  0  0  0  0  0  0  0  0
    0.7615   -5.4349    0.0000 C   0  0  0  0  0  0  0  0  0  0  0  0
   -0.0231   -5.1800    0.0000 O   0  0  0  0  0  0  0  0  0  0  0  0
    0.7145   -3.7125    0.0000 C   0  0  0  0  0  0  0  0  0  0  0  0
    0.7145   -2.8875    0.0000 C   0  0  0  0  0  0  0  0  0  0  0  0
    1.4289   -2.4750    0.0000 C   0  0  0  0  0  0  0  0  0  0  0  0
    1.4289   -1.6500    0.0000 C   0  0  0  0  0  0  0  0  0  0  0  0
    2.1434   -1.2375    0.0000 O   0  0  0  0  0  0  0  0  0  0  0  0
    0.7145   -1.2375    0.0000 N   0  0  0  0  0  0  0  0  0  0  0  0
    0.7145   -0.4125    0.0000 C   0  0  0  0  0  0  0  0  0  0  0  0
    0.0000    0.0000    0.0000 C   0  0  0  0  0  0  0  0  0  0  0  0
   -0.7145   -0.4125    0.0000 F   0  0  0  0  0  0  0  0  0  0  0  0
    0.0000    0.8250    0.0000 C   0  0  0  0  0  0  0  0  0  0  0  0
    0.7145    1.2375    0.0000 C   0  0  0  0  0  0  0  0  0  0  0  0
    1.4289    0.8250    0.0000 C   0  0  0  0  0  0  0  0  0  0  0  0
    1.4289    0.0000    0.0000 C   0  0  0  0  0  0  0  0  0  0  0  0
    2.1434   -0.4125    0.0000 Cl  0  0  0  0  0  0  0  0  0  0  0  0
    3.5724   -3.7125    0.0000 C   0  0  0  0  0  0  0  0  0  0  0  0
    2.7474   -3.7125    0.0000 F   0  0  0  0  0  0  0  0  0  0  0  0
    4.3974   -3.7125    0.0000 F   0  0  0  0  0  0  0  0  0  0  0  0
    3.5724   -4.5375    0.0000 F   0  0  0  0  0  0  0  0  0  0  0  0
  1  2  1  0  0  0  0
  2  3  1  0  0  0  0
  3  4  1  0  0  0  0
  4  5  4  0  0  0  0
  5  6  4  0  0  0  0
  6  7  1  0  0  0  0
  7  8  4  0  0  0  0
  8  9  4  0  0  0  0
  9 10  1  0  0  0  0
 10 11  1  0  0  0  0
 10 12  1  0  0  0  0
 10 13  1  0  0  0  0
  9 14  4  0  0  0  0
 14 15  1  0  0  0  0
 14 16  4  0  0  0  0
  7 16  4  0  0  0  0
 16 17  2  0  0  0  0
  6 18  4  0  0  0  0
 18 19  4  0  0  0  0
 19 20  4  0  0  0  0
  4 20  4  0  0  0  0
 20 21  1  0  0  0  0
 21 22  2  0  0  0  0
 21 23  1  0  0  0  0
 23 24  1  0  0  0  0
 24 25  4  0  0  0  0
 25 26  1  0  0  0  0
 25 27  4  0  0  0  0
 27 28  4  0  0  0  0
 28 29  4  0  0  0  0
 29 30  4  0  0  0  0
 24 30  4  0  0  0  0
 30 31  1  0  0  0  0
  2 32  1  0  0  0  0
 32 33  1  0  0  0  0
 32 34  1  0  0  0  0
 32 35  1  0  0  0  0
M  END
> <IC50(uM)>
0.0039

> <Outcome>
1.0

> <BindingDB ID>
1098792; 972638

> <BindingDB MonomerID>
470516

> <BindingDB Ligand Name>
N-(2-chloro-6-fluorophenyl)-4-[3-(2-hydroxypropan-2-yl)-4-methyl-5-oxo-4,5-dihydro-1H-1,2,4-triazol-1-yl]-2-{[(2S)-1,1,1-trifluoropropan-2-yl]oxy}benzamide::US10815215, Example 176::US11130745, Example 176; N-(2-chloro-6-fluorophenyl)-4-[3-(2-hydroxypropan-2-yl)-4-methyl-5-oxo-4,5-dihydro-1H-1,2,4-triazol-1-yl]-2-{[(2S)-1,1,1-trifluoropropan-2-yl]oxy}benzamide::US10815215, Example 176

> <Curation/DataSource>
US Patent

> <Article DOI>
?

> <PMID>
?

> <Patent Number>
US11130745; US10815215

> <Authors>
Gradl, SN; Nguyen, D; Eis, K; Gunther, J; Stellfeld, T; Janzer, A; Christian, S; Muller, T; Sheikh, SE; Sykes, DB; Ferrara, SJ; Krober, M; Merz, C; Niehues, M; Schafer, M; Zimmermann, K; Nising, CF; Gradl, SN; Nguyen, D; Eis, K; Gunther, J; Stellfeld, T; Janzer, A; Christian, S; Muller, T; Sheikh, SE; Zhou, HJ; Zhao, C; Sykes, DB; Ferrara, SJ; Liu, K; Krober, M; Merz, C; Niehues, M; Schafer, M; Zimmermann, K; Nising, CF

> <Link to Ligand in BindingDB>
http://www.bindingdb.org/bind/chemsearch/marvin/MolStructure.jsp?monomerid=470516

> <Link to Ligand-Target Pair in BindingDB>
http://www.bindingdb.org/jsp/dbsearch/PrimarySearch_ki.jsp?energyterm=kJ/mole&tag=r21&monomerid=470516&enzyme=Dihydroorotate+dehydrogenase&column=ki&startPg=0&Increment=50&submit=Search

> <PubChem CID>
134470209

> <PubChem SID>
441609692

$$$$

  Mrv2115 07222212352D          

 30 31  0  0  0  0            999 V2000
    1.4289   -6.6000    0.0000 C   0  0  0  0  0  0  0  0  0  0  0  0
    2.1434   -6.1875    0.0000 C   0  0  0  0  0  0  0  0  0  0  0  0
    2.8579   -6.6000    0.0000 C   0  0  0  0  0  0  0  0  0  0  0  0
    2.8579   -7.4250    0.0000 O   0  0  0  0  0  0  0  0  0  0  0  0
    3.5724   -6.1875    0.0000 C   0  0  0  0  0  0  0  0  0  0  0  0
    3.5724   -5.3625    0.0000 C   0  0  0  0  0  0  0  0  0  0  0  0
    3.5724   -4.5375    0.0000 N   0  0  0  0  0  0  0  0  0  0  0  0
    4.2868   -6.6000    0.0000 C   0  0  0  0  0  0  0  0  0  0  0  0
    4.2868   -7.4250    0.0000 O   0  0  0  0  0  0  0  0  0  0  0  0
    5.0013   -6.1875    0.0000 N   0  0  0  0  0  0  0  0  0  0  0  0
    5.7158   -6.6000    0.0000 C   0  0  0  0  0  0  0  0  0  0  0  0
    6.4302   -6.1875    0.0000 C   0  0  0  0  0  0  0  0  0  0  0  0
    7.1447   -6.6000    0.0000 C   0  0  0  0  0  0  0  0  0  0  0  0
    7.1447   -7.4250    0.0000 C   0  0  0  0  0  0  0  0  0  0  0  0
    7.8592   -7.8375    0.0000 C   0  0  0  0  0  0  0  0  0  0  0  0
    8.5737   -7.4250    0.0000 C   0  0  0  0  0  0  0  0  0  0  0  0
    9.2881   -7.8375    0.0000 C   0  0  0  0  0  0  0  0  0  0  0  0
    9.2881   -8.6625    0.0000 C   0  0  0  0  0  0  0  0  0  0  0  0
    8.5737   -9.0750    0.0000 C   0  0  0  0  0  0  0  0  0  0  0  0
    8.5737   -9.9000    0.0000 O   0  0  0  0  0  0  0  0  0  0  0  0
    9.2881  -10.3125    0.0000 C   0  0  0  0  0  0  0  0  0  0  0  0
   10.0026   -9.9000    0.0000 F   0  0  0  0  0  0  0  0  0  0  0  0
    9.2881  -11.1375    0.0000 F   0  0  0  0  0  0  0  0  0  0  0  0
    7.8592   -8.6625    0.0000 C   0  0  0  0  0  0  0  0  0  0  0  0
    6.4302   -7.8375    0.0000 C   0  0  0  0  0  0  0  0  0  0  0  0
    6.4302   -8.6625    0.0000 C   0  0  0  0  0  0  0  0  0  0  0  0
    5.7158   -9.0750    0.0000 O   0  0  0  0  0  0  0  0  0  0  0  0
    7.1447   -9.0750    0.0000 O   0  0  0  0  0  0  0  0  0  0  0  0
    7.1447   -9.9000    0.0000 C   0  0  0  0  0  0  0  0  0  0  0  0
    5.7158   -7.4250    0.0000 C   0  0  0  0  0  0  0  0  0  0  0  0
  1  2  1  0  0  0  0
  2  3  1  0  0  0  0
  3  4  2  0  0  0  0
  3  5  1  0  0  0  0
  5  6  1  0  0  0  0
  6  7  3  0  0  0  0
  5  8  1  0  0  0  0
  8  9  2  0  0  0  0
  8 10  1  0  0  0  0
 10 11  1  0  0  0  0
 11 12  4  0  0  0  0
 12 13  4  0  0  0  0
 13 14  4  0  0  0  0
 14 15  1  0  0  0  0
 15 16  4  0  0  0  0
 16 17  4  0  0  0  0
 17 18  4  0  0  0  0
 18 19  4  0  0  0  0
 19 20  1  0  0  0  0
 20 21  1  0  0  0  0
 21 22  1  0  0  0  0
 21 23  1  0  0  0  0
 19 24  4  0  0  0  0
 15 24  4  0  0  0  0
 14 25  4  0  0  0  0
 25 26  1  0  0  0  0
 26 27  2  0  0  0  0
 26 28  1  0  0  0  0
 28 29  1  0  0  0  0
 25 30  4  0  0  0  0
 11 30  4  0  0  0  0
M  END
> <IC50(uM)>
0.034

> <Outcome>
1.0

> <BindingDB ID>
50707387

> <BindingDB MonomerID>
50359708

> <BindingDB Ligand Name>
CHEMBL1929452

> <Curation/DataSource>
ChEMBL

> <Article DOI>
10.1016/j.bmcl.2011.10.052

> <PMID>
22078215

> <Patent Number>
?

> <Authors>
Erra, M; Moreno, I; Sanahuja, J; Andres, M; Reinoso, RF; Lozoya, E; Pizcueta, P; Godessart, N; Castro-Palomino, JC

> <Link to Ligand in BindingDB>
http://www.bindingdb.org/bind/chemsearch/marvin/MolStructure.jsp?monomerid=50359708

> <Link to Ligand-Target Pair in BindingDB>
http://www.bindingdb.org/jsp/dbsearch/PrimarySearch_ki.jsp?energyterm=kJ/mole&tag=r21&monomerid=50359708&enzyme=Dihydroorotate+dehydrogenase&column=ki&startPg=0&Increment=50&submit=Search

> <PubChem CID>
91930456

> <PubChem SID>
136963732

$$$$

  Mrv2115 07222212352D          

 29 31  0  0  0  0            999 V2000
    1.4289   -4.9500    0.0000 O   0  0  0  0  0  0  0  0  0  0  0  0
    2.1434   -5.3625    0.0000 C   0  0  0  0  0  0  0  0  0  0  0  0
    2.8579   -4.9500    0.0000 O   0  0  0  0  0  0  0  0  0  0  0  0
    2.1434   -6.1875    0.0000 C   0  0  0  0  0  0  0  0  0  0  0  0
    2.8109   -6.6724    0.0000 C   0  0  0  0  0  0  0  0  0  0  0  0
    3.5955   -6.4175    0.0000 C   0  0  0  0  0  0  0  0  0  0  0  0
    4.2086   -6.9695    0.0000 O   0  0  0  0  0  0  0  0  0  0  0  0
    3.7670   -5.6105    0.0000 N   0  0  0  0  0  0  0  0  0  0  0  0
    4.5516   -5.3556    0.0000 C   0  0  0  0  0  0  0  0  0  0  0  0
    4.7231   -4.5486    0.0000 C   0  0  0  0  0  0  0  0  0  0  0  0
    5.5078   -4.2937    0.0000 C   0  0  0  0  0  0  0  0  0  0  0  0
    5.6793   -3.4867    0.0000 Br  0  0  0  0  0  0  0  0  0  0  0  0
    6.1209   -4.8457    0.0000 C   0  0  0  0  0  0  0  0  0  0  0  0
    6.9055   -4.5908    0.0000 O   0  0  0  0  0  0  0  0  0  0  0  0
    7.0770   -3.7838    0.0000 C   0  0  0  0  0  0  0  0  0  0  0  0
    7.8616   -3.5288    0.0000 C   0  0  0  0  0  0  0  0  0  0  0  0
    8.0332   -2.7219    0.0000 C   0  0  0  0  0  0  0  0  0  0  0  0
    7.4201   -2.1698    0.0000 F   0  0  0  0  0  0  0  0  0  0  0  0
    8.8178   -2.4669    0.0000 C   0  0  0  0  0  0  0  0  0  0  0  0
    9.4309   -3.0190    0.0000 C   0  0  0  0  0  0  0  0  0  0  0  0
    9.2594   -3.8259    0.0000 C   0  0  0  0  0  0  0  0  0  0  0  0
    8.4747   -4.0809    0.0000 C   0  0  0  0  0  0  0  0  0  0  0  0
    8.3032   -4.8878    0.0000 Cl  0  0  0  0  0  0  0  0  0  0  0  0
    5.9493   -5.6527    0.0000 C   0  0  0  0  0  0  0  0  0  0  0  0
    6.5624   -6.2047    0.0000 Br  0  0  0  0  0  0  0  0  0  0  0  0
    5.1647   -5.9076    0.0000 C   0  0  0  0  0  0  0  0  0  0  0  0
    2.5559   -7.4570    0.0000 C   0  0  0  0  0  0  0  0  0  0  0  0
    1.7309   -7.4570    0.0000 C   0  0  0  0  0  0  0  0  0  0  0  0
    1.4760   -6.6724    0.0000 C   0  0  0  0  0  0  0  0  0  0  0  0
  1  2  2  0  0  0  0
  2  3  1  0  0  0  0
  2  4  1  0  0  0  0
  4  5  2  0  0  0  0
  5  6  1  0  0  0  0
  6  7  2  0  0  0  0
  6  8  1  0  0  0  0
  8  9  1  0  0  0  0
  9 10  4  0  0  0  0
 10 11  4  0  0  0  0
 11 12  1  0  0  0  0
 11 13  4  0  0  0  0
 13 14  1  0  0  0  0
 14 15  1  0  0  0  0
 15 16  1  0  0  0  0
 16 17  4  0  0  0  0
 17 18  1  0  0  0  0
 17 19  4  0  0  0  0
 19 20  4  0  0  0  0
 20 21  4  0  0  0  0
 21 22  4  0  0  0  0
 16 22  4  0  0  0  0
 22 23  1  0  0  0  0
 13 24  4  0  0  0  0
 24 25  1  0  0  0  0
 24 26  4  0  0  0  0
  9 26  4  0  0  0  0
  5 27  1  0  0  0  0
 27 28  1  0  0  0  0
 28 29  1  0  0  0  0
  4 29  1  0  0  0  0
M  END
> <IC50(uM)>
0.11

> <Outcome>
1.0

> <BindingDB ID>
50319901

> <BindingDB MonomerID>
50173158

> <BindingDB Ligand Name>
2-[3,5-Dibromo-4-(2-chloro-6-fluoro-benzyloxy)-phenylcarbamoyl]-cyclopent-1-enecarboxylic acid::CHEMBL196181

> <Curation/DataSource>
ChEMBL

> <Article DOI>
10.1016/j.bmcl.2005.07.053

> <PMID>
16143532

> <Patent Number>
?

> <Authors>
Leban, J; Kralik, M; Mies, J; Gassen, M; Tentschert, K; Baumgartner, R

> <Link to Ligand in BindingDB>
http://www.bindingdb.org/bind/chemsearch/marvin/MolStructure.jsp?monomerid=50173158

> <Link to Ligand-Target Pair in BindingDB>
http://www.bindingdb.org/jsp/dbsearch/PrimarySearch_ki.jsp?energyterm=kJ/mole&tag=r21&monomerid=50173158&enzyme=Dihydroorotate+dehydrogenase&column=ki&startPg=0&Increment=50&submit=Search

> <PubChem CID>
21084730

> <PubChem SID>
104059129

$$$$

  Mrv2115 07222212352D          

 34 37  0  0  0  0            999 V2000
    0.0000   -1.6500    0.0000 C   0  0  0  0  0  0  0  0  0  0  0  0
    0.7145   -1.2375    0.0000 C   0  0  0  0  0  0  0  0  0  0  0  0
    0.7145   -0.4125    0.0000 C   0  0  0  0  0  0  0  0  0  0  0  0
    0.0000    0.0000    0.0000 C   0  0  0  0  0  0  0  0  0  0  0  0
   -0.7145   -0.4125    0.0000 O   0  0  0  0  0  0  0  0  0  0  0  0
    0.0000    0.8250    0.0000 N   0  0  0  0  0  0  0  0  0  0  0  0
   -0.7145    1.2375    0.0000 C   0  0  0  0  0  0  0  0  0  0  0  0
   -1.4289    0.8250    0.0000 C   0  0  0  0  0  0  0  0  0  0  0  0
   -1.4289    0.0000    0.0000 F   0  0  0  0  0  0  0  0  0  0  0  0
   -2.1434    1.2375    0.0000 C   0  0  0  0  0  0  0  0  0  0  0  0
   -2.1434    2.0625    0.0000 C   0  0  0  0  0  0  0  0  0  0  0  0
   -2.8579    2.4750    0.0000 C   0  0  0  0  0  0  0  0  0  0  0  0
   -3.5724    2.0625    0.0000 C   0  0  0  0  0  0  0  0  0  0  0  0
   -4.2868    2.4750    0.0000 C   0  0  0  0  0  0  0  0  0  0  0  0
   -4.2868    3.3000    0.0000 C   0  0  0  0  0  0  0  0  0  0  0  0
   -3.5724    3.7125    0.0000 C   0  0  0  0  0  0  0  0  0  0  0  0
   -3.5724    4.5375    0.0000 F   0  0  0  0  0  0  0  0  0  0  0  0
   -2.8579    3.3000    0.0000 C   0  0  0  0  0  0  0  0  0  0  0  0
   -1.4289    2.4750    0.0000 C   0  0  0  0  0  0  0  0  0  0  0  0
   -0.7145    2.0625    0.0000 C   0  0  0  0  0  0  0  0  0  0  0  0
    0.0000    2.4750    0.0000 F   0  0  0  0  0  0  0  0  0  0  0  0
    1.4289    0.0000    0.0000 N   0  0  0  0  0  0  0  0  0  0  0  0
    2.1434   -0.4125    0.0000 C   0  0  0  0  0  0  0  0  0  0  0  0
    2.8579    0.0000    0.0000 C   0  0  0  0  0  0  0  0  0  0  0  0
    3.5724   -0.4125    0.0000 C   0  0  0  0  0  0  0  0  0  0  0  0
    3.5724   -1.2375    0.0000 C   0  0  0  0  0  0  0  0  0  0  0  0
    4.2868   -1.6500    0.0000 C   0  0  0  0  0  0  0  0  0  0  0  0
    5.0013   -2.0625    0.0000 F   0  0  0  0  0  0  0  0  0  0  0  0
    3.8743   -2.3645    0.0000 F   0  0  0  0  0  0  0  0  0  0  0  0
    4.6993   -0.9355    0.0000 F   0  0  0  0  0  0  0  0  0  0  0  0
    2.8579   -1.6500    0.0000 C   0  0  0  0  0  0  0  0  0  0  0  0
    2.1434   -1.2375    0.0000 C   0  0  0  0  0  0  0  0  0  0  0  0
    1.4289   -1.6500    0.0000 C   0  0  0  0  0  0  0  0  0  0  0  0
    1.4289   -2.4750    0.0000 O   0  0  0  0  0  0  0  0  0  0  0  0
  1  2  1  0  0  0  0
  2  3  4  0  0  0  0
  3  4  1  0  0  0  0
  4  5  2  0  0  0  0
  4  6  1  0  0  0  0
  6  7  1  0  0  0  0
  7  8  4  0  0  0  0
  8  9  1  0  0  0  0
  8 10  4  0  0  0  0
 10 11  4  0  0  0  0
 11 12  1  0  0  0  0
 12 13  4  0  0  0  0
 13 14  4  0  0  0  0
 14 15  4  0  0  0  0
 15 16  4  0  0  0  0
 16 17  1  0  0  0  0
 16 18  4  0  0  0  0
 12 18  4  0  0  0  0
 11 19  4  0  0  0  0
 19 20  4  0  0  0  0
  7 20  4  0  0  0  0
 20 21  1  0  0  0  0
  3 22  4  0  0  0  0
 22 23  4  0  0  0  0
 23 24  4  0  0  0  0
 24 25  4  0  0  0  0
 25 26  4  0  0  0  0
 26 27  1  0  0  0  0
 27 28  1  0  0  0  0
 27 29  1  0  0  0  0
 27 30  1  0  0  0  0
 26 31  4  0  0  0  0
 31 32  4  0  0  0  0
 23 32  4  0  0  0  0
 32 33  4  0  0  0  0
  2 33  4  0  0  0  0
 33 34  1  0  0  0  0
M  END
> <IC50(uM)>
6.09

> <Outcome>
0.0

> <BindingDB ID>
50107546

> <BindingDB MonomerID>
50020693

> <BindingDB Ligand Name>
CHEMBL3290838

> <Curation/DataSource>
ChEMBL

> <Article DOI>
10.1016/j.ejmech.2014.05.064

> <PMID>
24929289

> <Patent Number>
?

> <Authors>
Vyas, VK; Variya, B; Ghate, MD

> <Link to Ligand in BindingDB>
http://www.bindingdb.org/bind/chemsearch/marvin/MolStructure.jsp?monomerid=50020693

> <Link to Ligand-Target Pair in BindingDB>
http://www.bindingdb.org/jsp/dbsearch/PrimarySearch_ki.jsp?energyterm=kJ/mole&tag=r21&monomerid=50020693&enzyme=Dihydroorotate+dehydrogenase&column=ki&startPg=0&Increment=50&submit=Search

> <PubChem CID>
90644868

> <PubChem SID>
103931452

$$$$

  Mrv2115 07222212352D          

 34 36  0  0  0  0            999 V2000
    0.7145   -3.7125    0.0000 C   0  0  0  0  0  0  0  0  0  0  0  0
    1.4289   -4.1250    0.0000 C   0  0  0  0  0  0  0  0  0  0  0  0
    2.1434   -3.7125    0.0000 C   0  0  0  0  0  0  0  0  0  0  0  0
    1.4289   -4.9500    0.0000 C   0  0  0  0  0  0  0  0  0  0  0  0
    0.7615   -5.4349    0.0000 N   0  0  0  0  0  0  0  0  0  0  0  0
    1.0164   -6.2195    0.0000 N   0  0  0  0  0  0  0  0  0  0  0  0
    0.5315   -6.8870    0.0000 C   0  0  0  0  0  0  0  0  0  0  0  0
    0.8671   -7.6407    0.0000 C   0  0  0  0  0  0  0  0  0  0  0  0
    0.3822   -8.3081    0.0000 C   0  0  0  0  0  0  0  0  0  0  0  0
    0.7177   -9.0618    0.0000 O   0  0  0  0  0  0  0  0  0  0  0  0
    1.5382   -9.1480    0.0000 C   0  0  0  0  0  0  0  0  0  0  0  0
    2.0231   -8.4806    0.0000 C   0  0  0  0  0  0  0  0  0  0  0  0
    1.8738   -9.9017    0.0000 C   0  0  0  0  0  0  0  0  0  0  0  0
    1.1201  -10.2372    0.0000 F   0  0  0  0  0  0  0  0  0  0  0  0
    2.6274   -9.5661    0.0000 F   0  0  0  0  0  0  0  0  0  0  0  0
    2.2093  -10.6554    0.0000 F   0  0  0  0  0  0  0  0  0  0  0  0
   -0.4383   -8.2219    0.0000 C   0  0  0  0  0  0  0  0  0  0  0  0
   -0.9232   -8.8893    0.0000 C   0  0  0  0  0  0  0  0  0  0  0  0
   -1.7437   -8.8031    0.0000 O   0  0  0  0  0  0  0  0  0  0  0  0
   -0.5877   -9.6430    0.0000 N   0  0  0  0  0  0  0  0  0  0  0  0
   -1.0726  -10.3104    0.0000 C   0  0  0  0  0  0  0  0  0  0  0  0
   -0.7371  -11.0641    0.0000 C   0  0  0  0  0  0  0  0  0  0  0  0
   -1.2220  -11.7315    0.0000 C   0  0  0  0  0  0  0  0  0  0  0  0
   -2.0425  -11.6453    0.0000 C   0  0  0  0  0  0  0  0  0  0  0  0
   -2.3780  -10.8916    0.0000 C   0  0  0  0  0  0  0  0  0  0  0  0
   -1.8931  -10.2242    0.0000 C   0  0  0  0  0  0  0  0  0  0  0  0
   -2.2287   -9.4705    0.0000 F   0  0  0  0  0  0  0  0  0  0  0  0
   -0.7739   -7.4682    0.0000 C   0  0  0  0  0  0  0  0  0  0  0  0
   -0.2890   -6.8007    0.0000 C   0  0  0  0  0  0  0  0  0  0  0  0
   -0.6245   -6.0471    0.0000 F   0  0  0  0  0  0  0  0  0  0  0  0
    1.8414   -6.2195    0.0000 C   0  0  0  0  0  0  0  0  0  0  0  0
    2.3264   -6.8870    0.0000 O   0  0  0  0  0  0  0  0  0  0  0  0
    2.0964   -5.4349    0.0000 N   0  0  0  0  0  0  0  0  0  0  0  0
    2.8810   -5.1800    0.0000 C   0  0  0  0  0  0  0  0  0  0  0  0
  1  2  1  0  0  0  0
  2  3  1  0  0  0  0
  2  4  1  0  0  0  0
  4  5  4  0  0  0  0
  5  6  4  0  0  0  0
  6  7  1  0  0  0  0
  7  8  4  0  0  0  0
  8  9  4  0  0  0  0
  9 10  1  0  0  0  0
 10 11  1  0  0  0  0
 11 12  1  0  0  0  0
 11 13  1  0  0  0  0
 13 14  1  0  0  0  0
 13 15  1  0  0  0  0
 13 16  1  0  0  0  0
  9 17  4  0  0  0  0
 17 18  1  0  0  0  0
 18 19  2  0  0  0  0
 18 20  1  0  0  0  0
 20 21  1  0  0  0  0
 21 22  4  0  0  0  0
 22 23  4  0  0  0  0
 23 24  4  0  0  0  0
 24 25  4  0  0  0  0
 25 26  4  0  0  0  0
 21 26  4  0  0  0  0
 26 27  1  0  0  0  0
 17 28  4  0  0  0  0
 28 29  4  0  0  0  0
  7 29  4  0  0  0  0
 29 30  1  0  0  0  0
  6 31  4  0  0  0  0
 31 32  2  0  0  0  0
 31 33  4  0  0  0  0
  4 33  4  0  0  0  0
 33 34  1  0  0  0  0
M  END
> <IC50(uM)>
0.09

> <Outcome>
1.0

> <BindingDB ID>
1098687; 972533

> <BindingDB MonomerID>
470408

> <BindingDB Ligand Name>
5-fluoro-N-(2-fluorophenyl)-4-[4-methyl-5-oxo-3-(propan-2-yl)-4,5-dihydro-1H-1,2,4-triazol-1-yl]-2-{[(2S)-1,1,1-trifluoropropan-2-yl]oxy}benzamide::US10815215, Example 67::US11130745, Example 67; 5-fluoro-N-(2-fluorophenyl)-4-[4-methyl-5-oxo-3-(propan-2-yl)-4,5-dihydro-1H-1,2,4-triazol-1-yl]-2-{[(2S)-1,1,1-trifluoropropan-2-yl]oxy}benzamide::US10815215, Example 67

> <Curation/DataSource>
US Patent

> <Article DOI>
?

> <PMID>
?

> <Patent Number>
US11130745; US10815215

> <Authors>
Gradl, SN; Nguyen, D; Eis, K; Gunther, J; Stellfeld, T; Janzer, A; Christian, S; Muller, T; Sheikh, SE; Sykes, DB; Ferrara, SJ; Krober, M; Merz, C; Niehues, M; Schafer, M; Zimmermann, K; Nising, CF; Gradl, SN; Nguyen, D; Eis, K; Gunther, J; Stellfeld, T; Janzer, A; Christian, S; Muller, T; Sheikh, SE; Zhou, HJ; Zhao, C; Sykes, DB; Ferrara, SJ; Liu, K; Krober, M; Merz, C; Niehues, M; Schafer, M; Zimmermann, K; Nising, CF

> <Link to Ligand in BindingDB>
http://www.bindingdb.org/bind/chemsearch/marvin/MolStructure.jsp?monomerid=470408

> <Link to Ligand-Target Pair in BindingDB>
http://www.bindingdb.org/jsp/dbsearch/PrimarySearch_ki.jsp?energyterm=kJ/mole&tag=r21&monomerid=470408&enzyme=Dihydroorotate+dehydrogenase&column=ki&startPg=0&Increment=50&submit=Search

> <PubChem CID>
134469856

> <PubChem SID>
441609585

$$$$

  Mrv2115 07222212352D          

 36 39  0  0  0  0            999 V2000
    0.7145   -3.7125    0.0000 C   0  0  0  0  0  0  0  0  0  0  0  0
    1.4289   -4.1250    0.0000 C   0  0  0  0  0  0  0  0  0  0  0  0
    1.4289   -4.9500    0.0000 C   0  0  0  0  0  0  0  0  0  0  0  0
    2.0964   -5.4349    0.0000 N   0  0  0  0  0  0  0  0  0  0  0  0
    1.8414   -6.2195    0.0000 N   0  0  0  0  0  0  0  0  0  0  0  0
    2.3264   -6.8870    0.0000 C   0  0  0  0  0  0  0  0  0  0  0  0
    3.1468   -6.8007    0.0000 C   0  0  0  0  0  0  0  0  0  0  0  0
    3.6318   -7.4682    0.0000 C   0  0  0  0  0  0  0  0  0  0  0  0
    4.4522   -7.3820    0.0000 O   0  0  0  0  0  0  0  0  0  0  0  0
    4.7878   -6.6283    0.0000 C   0  0  0  0  0  0  0  0  0  0  0  0
    4.3029   -5.9608    0.0000 C   0  0  0  0  0  0  0  0  0  0  0  0
    5.6083   -6.5420    0.0000 C   0  0  0  0  0  0  0  0  0  0  0  0
    5.9438   -5.7884    0.0000 C   0  0  0  0  0  0  0  0  0  0  0  0
    6.7643   -5.7021    0.0000 C   0  0  0  0  0  0  0  0  0  0  0  0
    7.2492   -6.3696    0.0000 C   0  0  0  0  0  0  0  0  0  0  0  0
    6.9137   -7.1232    0.0000 C   0  0  0  0  0  0  0  0  0  0  0  0
    6.0932   -7.2095    0.0000 C   0  0  0  0  0  0  0  0  0  0  0  0
    3.2962   -8.2219    0.0000 C   0  0  0  0  0  0  0  0  0  0  0  0
    3.7811   -8.8893    0.0000 C   0  0  0  0  0  0  0  0  0  0  0  0
    3.4456   -9.6430    0.0000 O   0  0  0  0  0  0  0  0  0  0  0  0
    4.6016   -8.8031    0.0000 N   0  0  0  0  0  0  0  0  0  0  0  0
    5.0865   -9.4705    0.0000 C   0  0  0  0  0  0  0  0  0  0  0  0
    5.9070   -9.3843    0.0000 C   0  0  0  0  0  0  0  0  0  0  0  0
    6.2426   -8.6306    0.0000 F   0  0  0  0  0  0  0  0  0  0  0  0
    6.3919  -10.0517    0.0000 C   0  0  0  0  0  0  0  0  0  0  0  0
    6.0564  -10.8054    0.0000 C   0  0  0  0  0  0  0  0  0  0  0  0
    5.2359  -10.8916    0.0000 C   0  0  0  0  0  0  0  0  0  0  0  0
    4.7510  -10.2242    0.0000 C   0  0  0  0  0  0  0  0  0  0  0  0
    3.9305  -10.3104    0.0000 F   0  0  0  0  0  0  0  0  0  0  0  0
    2.4757   -8.3081    0.0000 C   0  0  0  0  0  0  0  0  0  0  0  0
    1.9908   -7.6407    0.0000 C   0  0  0  0  0  0  0  0  0  0  0  0
    1.1703   -7.7269    0.0000 F   0  0  0  0  0  0  0  0  0  0  0  0
    1.0164   -6.2195    0.0000 C   0  0  0  0  0  0  0  0  0  0  0  0
    0.5315   -6.8870    0.0000 O   0  0  0  0  0  0  0  0  0  0  0  0
    0.7615   -5.4349    0.0000 N   0  0  0  0  0  0  0  0  0  0  0  0
   -0.0231   -5.1800    0.0000 C   0  0  0  0  0  0  0  0  0  0  0  0
  1  2  1  0  0  0  0
  2  3  1  0  0  0  0
  3  4  4  0  0  0  0
  4  5  4  0  0  0  0
  5  6  1  0  0  0  0
  6  7  4  0  0  0  0
  7  8  4  0  0  0  0
  8  9  1  0  0  0  0
  9 10  1  0  0  0  0
 10 11  1  0  0  0  0
 10 12  1  0  0  0  0
 12 13  4  0  0  0  0
 13 14  4  0  0  0  0
 14 15  4  0  0  0  0
 15 16  4  0  0  0  0
 16 17  4  0  0  0  0
 12 17  4  0  0  0  0
  8 18  4  0  0  0  0
 18 19  1  0  0  0  0
 19 20  2  0  0  0  0
 19 21  1  0  0  0  0
 21 22  1  0  0  0  0
 22 23  4  0  0  0  0
 23 24  1  0  0  0  0
 23 25  4  0  0  0  0
 25 26  4  0  0  0  0
 26 27  4  0  0  0  0
 27 28  4  0  0  0  0
 22 28  4  0  0  0  0
 28 29  1  0  0  0  0
 18 30  4  0  0  0  0
 30 31  4  0  0  0  0
  6 31  4  0  0  0  0
 31 32  1  0  0  0  0
  5 33  4  0  0  0  0
 33 34  2  0  0  0  0
 33 35  4  0  0  0  0
  3 35  4  0  0  0  0
 35 36  1  0  0  0  0
M  END
> <IC50(uM)>
0.015

> <Outcome>
1.0

> <BindingDB ID>
972535; 1098689

> <BindingDB MonomerID>
470410

> <BindingDB Ligand Name>
N-(2,6-difluorophenyl)-4-(3-ethyl-4-methyl-5-oxo-4,5-dihydro-1H-1,2,4-triazol-1-yl)-5-fluoro-2-[(1S)-1-phenylethoxy]benzamide::US10815215, Example 69; N-(2,6-difluorophenyl)-4-(3-ethyl-4-methyl-5-oxo-4,5-dihydro-1H-1,2,4-triazol-1-yl)-5-fluoro-2-[(1S)-1-phenylethoxy]benzamide::US10815215, Example 69::US11130745, Example 69

> <Curation/DataSource>
US Patent

> <Article DOI>
?

> <PMID>
?

> <Patent Number>
US10815215; US11130745

> <Authors>
Gradl, SN; Nguyen, D; Eis, K; Gunther, J; Stellfeld, T; Janzer, A; Christian, S; Muller, T; Sheikh, SE; Zhou, HJ; Zhao, C; Sykes, DB; Ferrara, SJ; Liu, K; Krober, M; Merz, C; Niehues, M; Schafer, M; Zimmermann, K; Nising, CF; Gradl, SN; Nguyen, D; Eis, K; Gunther, J; Stellfeld, T; Janzer, A; Christian, S; Muller, T; Sheikh, SE; Sykes, DB; Ferrara, SJ; Krober, M; Merz, C; Niehues, M; Schafer, M; Zimmermann, K; Nising, CF

> <Link to Ligand in BindingDB>
http://www.bindingdb.org/bind/chemsearch/marvin/MolStructure.jsp?monomerid=470410

> <Link to Ligand-Target Pair in BindingDB>
http://www.bindingdb.org/jsp/dbsearch/PrimarySearch_ki.jsp?energyterm=kJ/mole&tag=r21&monomerid=470410&enzyme=Dihydroorotate+dehydrogenase&column=ki&startPg=0&Increment=50&submit=Search

> <PubChem CID>
134470368

> <PubChem SID>
441609587

$$$$

  Mrv2115 07222212352D          

 38 42  0  0  0  0            999 V2000
    3.3523    6.0604    0.0000 C   0  0  0  0  0  0  0  0  0  0  0  0
    4.0668    5.6479    0.0000 C   0  0  0  0  0  0  0  0  0  0  0  0
    4.0668    4.8229    0.0000 O   0  0  0  0  0  0  0  0  0  0  0  0
    4.7812    4.4104    0.0000 C   0  0  0  0  0  0  0  0  0  0  0  0
    5.4957    4.8229    0.0000 C   0  0  0  0  0  0  0  0  0  0  0  0
    6.2102    4.4104    0.0000 C   0  0  0  0  0  0  0  0  0  0  0  0
    6.9246    4.8229    0.0000 N   0  0  0  0  0  0  0  0  0  0  0  0
    7.6783    4.4874    0.0000 N   0  0  0  0  0  0  0  0  0  0  0  0
    8.2303    5.1005    0.0000 C   0  0  0  0  0  0  0  0  0  0  0  0
    7.8178    5.8150    0.0000 N   0  0  0  0  0  0  0  0  0  0  0  0
    7.0109    5.6434    0.0000 C   0  0  0  0  0  0  0  0  0  0  0  0
    6.3978    6.1955    0.0000 O   0  0  0  0  0  0  0  0  0  0  0  0
    8.2303    6.5294    0.0000 C   0  0  0  0  0  0  0  0  0  0  0  0
    9.0553    6.5294    0.0000 C   0  0  0  0  0  0  0  0  0  0  0  0
    9.4678    5.8150    0.0000 C   0  0  0  0  0  0  0  0  0  0  0  0
    9.0553    5.1005    0.0000 C   0  0  0  0  0  0  0  0  0  0  0  0
    6.2102    3.5854    0.0000 C   0  0  0  0  0  0  0  0  0  0  0  0
    6.9246    3.1729    0.0000 F   0  0  0  0  0  0  0  0  0  0  0  0
    5.4957    3.1729    0.0000 C   0  0  0  0  0  0  0  0  0  0  0  0
    4.7812    3.5854    0.0000 C   0  0  0  0  0  0  0  0  0  0  0  0
    4.0668    3.1729    0.0000 C   0  0  0  0  0  0  0  0  0  0  0  0
    3.3523    3.5854    0.0000 O   0  0  0  0  0  0  0  0  0  0  0  0
    4.0668    2.3479    0.0000 N   0  0  0  0  0  0  0  0  0  0  0  0
    3.3523    1.9354    0.0000 C   0  0  0  0  0  0  0  0  0  0  0  0
    3.3523    1.1104    0.0000 C   0  0  0  0  0  0  0  0  0  0  0  0
    2.6378    0.6979    0.0000 C   0  0  0  0  0  0  0  0  0  0  0  0
    2.6378   -0.1271    0.0000 F   0  0  0  0  0  0  0  0  0  0  0  0
    1.9233    1.1104    0.0000 C   0  0  0  0  0  0  0  0  0  0  0  0
    1.1387    0.8555    0.0000 C   0  0  0  0  0  0  0  0  0  0  0  0
    0.8838    0.0709    0.0000 O   0  0  0  0  0  0  0  0  0  0  0  0
    0.6538    1.5229    0.0000 N   0  0  0  0  0  0  0  0  0  0  0  0
    1.1387    2.1904    0.0000 N   0  0  0  0  0  0  0  0  0  0  0  0
    1.9233    1.9354    0.0000 C   0  0  0  0  0  0  0  0  0  0  0  0
    2.6378    2.3479    0.0000 C   0  0  0  0  0  0  0  0  0  0  0  0
    4.7812    6.0604    0.0000 C   0  0  0  0  0  0  0  0  0  0  0  0
    5.1937    5.3460    0.0000 F   0  0  0  0  0  0  0  0  0  0  0  0
    4.3687    6.7749    0.0000 F   0  0  0  0  0  0  0  0  0  0  0  0
    5.4957    6.4729    0.0000 F   0  0  0  0  0  0  0  0  0  0  0  0
  1  2  1  0  0  0  0
  2  3  1  0  0  0  0
  3  4  1  0  0  0  0
  4  5  4  0  0  0  0
  5  6  4  0  0  0  0
  6  7  1  0  0  0  0
  7  8  4  0  0  0  0
  8  9  4  0  0  0  0
  9 10  4  0  0  0  0
 10 11  4  0  0  0  0
  7 11  4  0  0  0  0
 11 12  2  0  0  0  0
 10 13  1  0  0  0  0
 13 14  1  0  0  0  0
 14 15  1  0  0  0  0
 15 16  1  0  0  0  0
  9 16  1  0  0  0  0
  6 17  4  0  0  0  0
 17 18  1  0  0  0  0
 17 19  4  0  0  0  0
 19 20  4  0  0  0  0
  4 20  4  0  0  0  0
 20 21  1  0  0  0  0
 21 22  2  0  0  0  0
 21 23  1  0  0  0  0
 23 24  1  0  0  0  0
 24 25  4  0  0  0  0
 25 26  4  0  0  0  0
 26 27  1  0  0  0  0
 26 28  4  0  0  0  0
 28 29  4  0  0  0  0
 29 30  1  0  0  0  0
 29 31  4  0  0  0  0
 31 32  4  0  0  0  0
 32 33  4  0  0  0  0
 28 33  4  0  0  0  0
 33 34  4  0  0  0  0
 24 34  4  0  0  0  0
  2 35  1  0  0  0  0
 35 36  1  0  0  0  0
 35 37  1  0  0  0  0
 35 38  1  0  0  0  0
M  STY  1   1 DAT
M  SAL   1  1  32
M  SDT   1 MRV_IMPLICIT_H                                        
M  SDD   1     0.5304   -0.4125    DR    ALL  0       0  
M  SED   1 IMPL_H1
M  END
> <IC50(uM)>
30.0

> <Outcome>
0.0

> <BindingDB ID>
1020494

> <BindingDB MonomerID>
490442

> <BindingDB Ligand Name>
5-fluoro-N-(4-fluoro-3-hydroxy-1H-indazol-6-yl)-4-(3-oxo-5,6,7,8-tetrahydro[1,2,4]triazolo[4,3-a]pyridin-2(3H)-yl)-2-{[(2S)-1,1,1-trifluoropropan-2-yl]oxy}benzamide::US10968216, Example 110

> <Curation/DataSource>
US Patent

> <Article DOI>
?

> <PMID>
?

> <Patent Number>
US10968216

> <Authors>
Gradl, SN; Nguyen, D; Eis, K; Gunther, J; Stellfeld, T; Janzer, A; Christian, S; Mueller, T; Sheikh, SE; Zhou, HJ; Zhao, C; Sykes, DB; Ferrara, SJ; Liu, K; Herbert, SA; Merz, C; Niehues, M; Nising, CF; Schafer, M; Zimmermann, K; Knablein, J; Thede, K; Faupel, T

> <Link to Ligand in BindingDB>
http://www.bindingdb.org/bind/chemsearch/marvin/MolStructure.jsp?monomerid=490442

> <Link to Ligand-Target Pair in BindingDB>
http://www.bindingdb.org/jsp/dbsearch/PrimarySearch_ki.jsp?energyterm=kJ/mole&tag=r21&monomerid=490442&enzyme=Dihydroorotate+dehydrogenase&column=ki&startPg=0&Increment=50&submit=Search

> <PubChem CID>
134474359

> <PubChem SID>
447117169

$$$$

  Mrv2115 07222212352D          

 26 29  0  0  0  0            999 V2000
    4.8908    5.2370    0.0000 C   0  0  0  0  0  0  0  0  0  0  0  0
    4.4059    4.5695    0.0000 C   0  0  0  0  0  0  0  0  0  0  0  0
    4.6608    3.7849    0.0000 C   0  0  0  0  0  0  0  0  0  0  0  0
    3.9934    3.3000    0.0000 C   0  0  0  0  0  0  0  0  0  0  0  0
    3.9934    2.4750    0.0000 C   0  0  0  0  0  0  0  0  0  0  0  0
    4.7079    2.0625    0.0000 O   0  0  0  0  0  0  0  0  0  0  0  0
    3.2789    2.0625    0.0000 N   0  0  0  0  0  0  0  0  0  0  0  0
    3.2789    1.2375    0.0000 C   0  0  0  0  0  0  0  0  0  0  0  0
    3.9934    0.8250    0.0000 C   0  0  0  0  0  0  0  0  0  0  0  0
    3.9934    0.0000    0.0000 C   0  0  0  0  0  0  0  0  0  0  0  0
    3.2789   -0.4125    0.0000 C   0  0  0  0  0  0  0  0  0  0  0  0
    2.5645    0.0000    0.0000 C   0  0  0  0  0  0  0  0  0  0  0  0
    2.5645    0.8250    0.0000 C   0  0  0  0  0  0  0  0  0  0  0  0
    1.7798    1.0799    0.0000 C   0  0  0  0  0  0  0  0  0  0  0  0
    1.2949    0.4125    0.0000 N   0  0  0  0  0  0  0  0  0  0  0  0
    1.7798   -0.2549    0.0000 N   0  0  0  0  0  0  0  0  0  0  0  0
    1.5249   -1.0396    0.0000 C   0  0  0  0  0  0  0  0  0  0  0  0
    2.0769   -1.6527    0.0000 C   0  0  0  0  0  0  0  0  0  0  0  0
    1.8220   -2.4373    0.0000 C   0  0  0  0  0  0  0  0  0  0  0  0
    1.0150   -2.6088    0.0000 C   0  0  0  0  0  0  0  0  0  0  0  0
    0.7601   -3.3934    0.0000 C   0  0  0  0  0  0  0  0  0  0  0  0
    0.4630   -1.9957    0.0000 C   0  0  0  0  0  0  0  0  0  0  0  0
   -0.3440   -2.1672    0.0000 C   0  0  0  0  0  0  0  0  0  0  0  0
    0.7179   -1.2111    0.0000 C   0  0  0  0  0  0  0  0  0  0  0  0
    3.3260    3.7849    0.0000 N   0  0  0  0  0  0  0  0  0  0  0  0
    3.5809    4.5695    0.0000 O   0  0  0  0  0  0  0  0  0  0  0  0
  1  2  1  0  0  0  0
  2  3  4  0  0  0  0
  3  4  4  0  0  0  0
  4  5  1  0  0  0  0
  5  6  2  0  0  0  0
  5  7  1  0  0  0  0
  7  8  1  0  0  0  0
  8  9  1  0  0  0  0
  9 10  1  0  0  0  0
 10 11  1  0  0  0  0
 11 12  1  0  0  0  0
 12 13  4  0  0  0  0
  8 13  1  0  0  0  0
 13 14  4  0  0  0  0
 14 15  4  0  0  0  0
 15 16  4  0  0  0  0
 12 16  4  0  0  0  0
 16 17  1  0  0  0  0
 17 18  4  0  0  0  0
 18 19  4  0  0  0  0
 19 20  4  0  0  0  0
 20 21  1  0  0  0  0
 20 22  4  0  0  0  0
 22 23  1  0  0  0  0
 22 24  4  0  0  0  0
 17 24  4  0  0  0  0
  4 25  4  0  0  0  0
 25 26  4  0  0  0  0
  2 26  4  0  0  0  0
M  END
> <IC50(uM)>
5.83

> <Outcome>
0.0

> <BindingDB ID>
993075

> <BindingDB MonomerID>
477577

> <BindingDB Ligand Name>
N-[1-(3,4-dimethylphenyl)-4,5,6,7-tetrahydro-1H-indazol-4-yl]-5-methyl-3-isoxazolecarboxamide::US10889564, Example 6

> <Curation/DataSource>
US Patent

> <Article DOI>
?

> <PMID>
?

> <Patent Number>
US10889564

> <Authors>
Lain, S; Drummond, C; Leeuwen, IV; Haraldsson, M; Johansson, L; Sandberg, L; Yngve, U

> <Link to Ligand in BindingDB>
http://www.bindingdb.org/bind/chemsearch/marvin/MolStructure.jsp?monomerid=477577

> <Link to Ligand-Target Pair in BindingDB>
http://www.bindingdb.org/jsp/dbsearch/PrimarySearch_ki.jsp?energyterm=kJ/mole&tag=r21&monomerid=477577&enzyme=Dihydroorotate+dehydrogenase&column=ki&startPg=0&Increment=50&submit=Search

> <PubChem CID>
24817064

> <PubChem SID>
442137194

$$$$

  Mrv2115 07222212352D          

 34 37  0  0  0  0            999 V2000
   -5.0710    1.6562    0.0000 C   0  0  0  0  0  0  0  0  0  0  0  0
   -4.2640    1.4847    0.0000 C   0  0  0  0  0  0  0  0  0  0  0  0
   -3.6509    2.0367    0.0000 N   0  0  0  0  0  0  0  0  0  0  0  0
   -2.9364    1.6242    0.0000 N   0  0  0  0  0  0  0  0  0  0  0  0
   -2.1827    1.9598    0.0000 C   0  0  0  0  0  0  0  0  0  0  0  0
   -3.1079    0.8172    0.0000 C   0  0  0  0  0  0  0  0  0  0  0  0
   -3.9284    0.7310    0.0000 C   0  0  0  0  0  0  0  0  0  0  0  0
   -4.3409    0.0165    0.0000 N   0  0  0  0  0  0  0  0  0  0  0  0
   -3.9284   -0.6979    0.0000 C   0  0  0  0  0  0  0  0  0  0  0  0
   -4.3409   -1.4124    0.0000 O   0  0  0  0  0  0  0  0  0  0  0  0
   -3.1034   -0.6979    0.0000 C   0  0  0  0  0  0  0  0  0  0  0  0
   -2.6909    0.0165    0.0000 C   0  0  0  0  0  0  0  0  0  0  0  0
   -1.8659    0.0165    0.0000 C   0  0  0  0  0  0  0  0  0  0  0  0
   -1.4534    0.7310    0.0000 F   0  0  0  0  0  0  0  0  0  0  0  0
   -1.4534   -0.6979    0.0000 C   0  0  0  0  0  0  0  0  0  0  0  0
   -0.6284   -0.6979    0.0000 N   0  0  0  0  0  0  0  0  0  0  0  0
   -0.1435   -1.3654    0.0000 N   0  0  0  0  0  0  0  0  0  0  0  0
    0.6411   -1.1104    0.0000 C   0  0  0  0  0  0  0  0  0  0  0  0
    0.6411   -0.2854    0.0000 N   0  0  0  0  0  0  0  0  0  0  0  0
   -0.1435   -0.0305    0.0000 C   0  0  0  0  0  0  0  0  0  0  0  0
   -0.3984    0.7541    0.0000 O   0  0  0  0  0  0  0  0  0  0  0  0
    1.3556    0.1271    0.0000 C   0  0  0  0  0  0  0  0  0  0  0  0
    2.0701   -0.2854    0.0000 C   0  0  0  0  0  0  0  0  0  0  0  0
    2.0701   -1.1104    0.0000 C   0  0  0  0  0  0  0  0  0  0  0  0
    1.3556   -1.5229    0.0000 C   0  0  0  0  0  0  0  0  0  0  0  0
   -1.8659   -1.4124    0.0000 C   0  0  0  0  0  0  0  0  0  0  0  0
   -2.6909   -1.4124    0.0000 C   0  0  0  0  0  0  0  0  0  0  0  0
   -3.1034   -2.1269    0.0000 O   0  0  0  0  0  0  0  0  0  0  0  0
   -2.6909   -2.8414    0.0000 C   0  0  0  0  0  0  0  0  0  0  0  0
   -1.8659   -2.8414    0.0000 C   0  0  0  0  0  0  0  0  0  0  0  0
   -3.1034   -3.5558    0.0000 C   0  0  0  0  0  0  0  0  0  0  0  0
   -3.8179   -3.1433    0.0000 F   0  0  0  0  0  0  0  0  0  0  0  0
   -2.3890   -3.9683    0.0000 F   0  0  0  0  0  0  0  0  0  0  0  0
   -3.5159   -4.2703    0.0000 F   0  0  0  0  0  0  0  0  0  0  0  0
  1  2  1  0  0  0  0
  2  3  4  0  0  0  0
  3  4  4  0  0  0  0
  4  5  1  0  0  0  0
  4  6  4  0  0  0  0
  6  7  4  0  0  0  0
  2  7  4  0  0  0  0
  7  8  1  0  0  0  0
  8  9  1  0  0  0  0
  9 10  2  0  0  0  0
  9 11  1  0  0  0  0
 11 12  4  0  0  0  0
 12 13  4  0  0  0  0
 13 14  1  0  0  0  0
 13 15  4  0  0  0  0
 15 16  1  0  0  0  0
 16 17  4  0  0  0  0
 17 18  4  0  0  0  0
 18 19  4  0  0  0  0
 19 20  4  0  0  0  0
 16 20  4  0  0  0  0
 20 21  2  0  0  0  0
 19 22  1  0  0  0  0
 22 23  1  0  0  0  0
 23 24  1  0  0  0  0
 24 25  1  0  0  0  0
 18 25  1  0  0  0  0
 15 26  4  0  0  0  0
 26 27  4  0  0  0  0
 11 27  4  0  0  0  0
 27 28  1  0  0  0  0
 28 29  1  0  0  0  0
 29 30  1  0  0  0  0
 29 31  1  0  0  0  0
 31 32  1  0  0  0  0
 31 33  1  0  0  0  0
 31 34  1  0  0  0  0
M  END
> <IC50(uM)>
2.5

> <Outcome>
0.0

> <BindingDB ID>
1020473

> <BindingDB MonomerID>
490421

> <BindingDB Ligand Name>
N-(1,3-dimethyl-1H-pyrazol-4-yl)-5-fluoro-4-(3-oxo-5,6,7,8-tetrahydro[1,2,4]triazolo[4,3-a]pyridin-2(3H)-yl)-2-{[(2S)-1,1,1-trifluoropropan-2-yl]oxy}benzamide::US10968216, Example 89

> <Curation/DataSource>
US Patent

> <Article DOI>
?

> <PMID>
?

> <Patent Number>
US10968216

> <Authors>
Gradl, SN; Nguyen, D; Eis, K; Gunther, J; Stellfeld, T; Janzer, A; Christian, S; Mueller, T; Sheikh, SE; Zhou, HJ; Zhao, C; Sykes, DB; Ferrara, SJ; Liu, K; Herbert, SA; Merz, C; Niehues, M; Nising, CF; Schafer, M; Zimmermann, K; Knablein, J; Thede, K; Faupel, T

> <Link to Ligand in BindingDB>
http://www.bindingdb.org/bind/chemsearch/marvin/MolStructure.jsp?monomerid=490421

> <Link to Ligand-Target Pair in BindingDB>
http://www.bindingdb.org/jsp/dbsearch/PrimarySearch_ki.jsp?energyterm=kJ/mole&tag=r21&monomerid=490421&enzyme=Dihydroorotate+dehydrogenase&column=ki&startPg=0&Increment=50&submit=Search

> <PubChem CID>
142335883

> <PubChem SID>
447117148

$$$$

  Mrv2115 07222212352D          

 25 27  0  0  0  0            999 V2000
    7.8592    1.2375    0.0000 O   0  0  0  0  0  0  0  0  0  0  0  0
    7.8592    0.4125    0.0000 C   0  0  0  0  0  0  0  0  0  0  0  0
    7.1447    0.0000    0.0000 C   0  0  0  0  0  0  0  0  0  0  0  0
    6.4302    0.4125    0.0000 C   0  0  0  0  0  0  0  0  0  0  0  0
    5.7158    0.0000    0.0000 N   0  0  0  0  0  0  0  0  0  0  0  0
    5.0013    0.4125    0.0000 C   0  0  0  0  0  0  0  0  0  0  0  0
    5.0013    1.2375    0.0000 O   0  0  0  0  0  0  0  0  0  0  0  0
    4.2868    0.0000    0.0000 C   0  0  0  0  0  0  0  0  0  0  0  0
    4.2868   -0.8250    0.0000 C   0  0  0  0  0  0  0  0  0  0  0  0
    3.5724   -1.2375    0.0000 C   0  0  0  0  0  0  0  0  0  0  0  0
    2.8579   -0.8250    0.0000 C   0  0  0  0  0  0  0  0  0  0  0  0
    2.1434   -1.2375    0.0000 F   0  0  0  0  0  0  0  0  0  0  0  0
    2.8579    0.0000    0.0000 C   0  0  0  0  0  0  0  0  0  0  0  0
    3.5724    0.4125    0.0000 C   0  0  0  0  0  0  0  0  0  0  0  0
    8.5737    0.0000    0.0000 N   0  0  0  0  0  0  0  0  0  0  0  0
    9.2881    0.4125    0.0000 C   0  0  0  0  0  0  0  0  0  0  0  0
    9.2881    1.2375    0.0000 C   0  0  0  0  0  0  0  0  0  0  0  0
   10.0026    1.6500    0.0000 C   0  0  0  0  0  0  0  0  0  0  0  0
   10.7171    1.2375    0.0000 C   0  0  0  0  0  0  0  0  0  0  0  0
   10.7171    0.4125    0.0000 C   0  0  0  0  0  0  0  0  0  0  0  0
   11.4315    0.0000    0.0000 C   0  0  0  0  0  0  0  0  0  0  0  0
   11.4315   -0.8250    0.0000 C   0  0  0  0  0  0  0  0  0  0  0  0
   10.7171   -1.2375    0.0000 C   0  0  0  0  0  0  0  0  0  0  0  0
   10.0026   -0.8250    0.0000 C   0  0  0  0  0  0  0  0  0  0  0  0
   10.0026    0.0000    0.0000 C   0  0  0  0  0  0  0  0  0  0  0  0
  1  2  2  0  0  0  0
  2  3  1  0  0  0  0
  3  4  1  0  0  0  0
  4  5  1  0  0  0  0
  5  6  1  0  0  0  0
  6  7  2  0  0  0  0
  6  8  1  0  0  0  0
  8  9  4  0  0  0  0
  9 10  4  0  0  0  0
 10 11  4  0  0  0  0
 11 12  1  0  0  0  0
 11 13  4  0  0  0  0
 13 14  4  0  0  0  0
  8 14  4  0  0  0  0
  2 15  1  0  0  0  0
 15 16  1  0  0  0  0
 16 17  1  0  0  0  0
 17 18  1  0  0  0  0
 18 19  1  0  0  0  0
 19 20  1  0  0  0  0
 20 21  4  0  0  0  0
 21 22  4  0  0  0  0
 22 23  4  0  0  0  0
 23 24  4  0  0  0  0
 24 25  4  0  0  0  0
 20 25  4  0  0  0  0
 16 25  1  0  0  0  0
M  END
> <IC50(uM)>
9.5

> <Outcome>
0.0

> <BindingDB ID>
50527788

> <BindingDB MonomerID>
50201632

> <BindingDB Ligand Name>
CHEMBL3185911

> <Curation/DataSource>
ChEMBL

> <Article DOI>
10.1021/acsmedchemlett.6b00316

> <PMID>
27994748

> <Patent Number>
?

> <Authors>
Lewis, TA; Sykes, DB; Law, JM; Mu??oz, B; Rustiguel, JK; Nonato, MC; Scadden, DT; Schreiber, SL

> <Link to Ligand in BindingDB>
http://www.bindingdb.org/bind/chemsearch/marvin/MolStructure.jsp?monomerid=50201632

> <Link to Ligand-Target Pair in BindingDB>
http://www.bindingdb.org/jsp/dbsearch/PrimarySearch_ki.jsp?energyterm=kJ/mole&tag=r21&monomerid=50201632&enzyme=Dihydroorotate+dehydrogenase&column=ki&startPg=0&Increment=50&submit=Search

> <PubChem CID>
71768308

> <PubChem SID>
375979420

$$$$

  Mrv2115 07222212352D          

 31 34  0  0  0  0            999 V2000
    0.7145   -2.8875    0.0000 C   0  0  0  0  0  0  0  0  0  0  0  0
    0.0000   -2.4750    0.0000 C   0  0  0  0  0  0  0  0  0  0  0  0
   -0.7145   -2.8875    0.0000 C   0  0  0  0  0  0  0  0  0  0  0  0
   -1.4289   -2.4750    0.0000 C   0  0  0  0  0  0  0  0  0  0  0  0
   -1.4289   -1.6500    0.0000 C   0  0  0  0  0  0  0  0  0  0  0  0
   -0.7145   -1.2375    0.0000 C   0  0  0  0  0  0  0  0  0  0  0  0
    0.0000   -1.6500    0.0000 C   0  0  0  0  0  0  0  0  0  0  0  0
    0.7145   -1.2375    0.0000 N   0  0  0  0  0  0  0  0  0  0  0  0
    0.7145   -0.4125    0.0000 C   0  0  0  0  0  0  0  0  0  0  0  0
    1.4289    0.0000    0.0000 C   0  0  0  0  0  0  0  0  0  0  0  0
    1.4289    0.8250    0.0000 C   0  0  0  0  0  0  0  0  0  0  0  0
    2.1434    1.2375    0.0000 C   0  0  0  0  0  0  0  0  0  0  0  0
    0.7145    1.2375    0.0000 C   0  0  0  0  0  0  0  0  0  0  0  0
    2.1434   -0.4125    0.0000 C   0  0  0  0  0  0  0  0  0  0  0  0
    2.8579    0.0000    0.0000 C   0  0  0  0  0  0  0  0  0  0  0  0
    3.5724   -0.4125    0.0000 C   0  0  0  0  0  0  0  0  0  0  0  0
    4.2868   -0.0000    0.0000 C   0  0  0  0  0  0  0  0  0  0  0  0
    4.3731    0.8205    0.0000 N   0  0  0  0  0  0  0  0  0  0  0  0
    5.1800    0.9920    0.0000 C   0  0  0  0  0  0  0  0  0  0  0  0
    5.5156    1.7457    0.0000 C   0  0  0  0  0  0  0  0  0  0  0  0
    5.0307    2.4131    0.0000 C   0  0  0  0  0  0  0  0  0  0  0  0
    6.3361    1.8319    0.0000 O   0  0  0  0  0  0  0  0  0  0  0  0
    5.5925    0.2775    0.0000 N   0  0  0  0  0  0  0  0  0  0  0  0
    6.4130    0.1913    0.0000 C   0  0  0  0  0  0  0  0  0  0  0  0
    5.0405   -0.3356    0.0000 N   0  0  0  0  0  0  0  0  0  0  0  0
    3.5724   -1.2375    0.0000 C   0  0  0  0  0  0  0  0  0  0  0  0
    4.2868   -1.6500    0.0000 F   0  0  0  0  0  0  0  0  0  0  0  0
    2.8579   -1.6500    0.0000 C   0  0  0  0  0  0  0  0  0  0  0  0
    2.1434   -1.2375    0.0000 C   0  0  0  0  0  0  0  0  0  0  0  0
    1.4289   -1.6500    0.0000 C   0  0  0  0  0  0  0  0  0  0  0  0
    1.4289   -2.4750    0.0000 O   0  0  0  0  0  0  0  0  0  0  0  0
  1  2  1  0  0  0  0
  2  3  4  0  0  0  0
  3  4  4  0  0  0  0
  4  5  4  0  0  0  0
  5  6  4  0  0  0  0
  6  7  4  0  0  0  0
  2  7  4  0  0  0  0
  7  8  1  0  0  0  0
  8  9  4  0  0  0  0
  9 10  4  0  0  0  0
 10 11  1  0  0  0  0
 11 12  1  0  0  0  0
 11 13  1  0  0  0  0
 10 14  4  0  0  0  0
 14 15  4  0  0  0  0
 15 16  4  0  0  0  0
 16 17  1  0  0  0  0
 17 18  4  0  0  0  0
 18 19  4  0  0  0  0
 19 20  1  0  0  0  0
 20 21  1  0  0  0  0
 20 22  1  0  0  0  0
 19 23  4  0  0  0  0
 23 24  1  0  0  0  0
 23 25  4  0  0  0  0
 17 25  4  0  0  0  0
 16 26  4  0  0  0  0
 26 27  1  0  0  0  0
 26 28  4  0  0  0  0
 28 29  4  0  0  0  0
 14 29  4  0  0  0  0
 29 30  4  0  0  0  0
  8 30  4  0  0  0  0
 30 31  2  0  0  0  0
M  END
> <IC50(uM)>
0.0012560000000000004

> <Outcome>
1.0

> <BindingDB ID>
1121375; 1121384; 1121367; 1121374; 1121383

> <BindingDB MonomerID>
530441; 530433; 530440

> <BindingDB Ligand Name>
(S*)-7-Fluoro-6-(5-(1-hydroxyethyl)-1-methyl-1H-1,2,4-triazol-3-yl)-4-isopropyl- 2-(o-tolyl)isoquinolin-1(2H)-one.::WO2022070068, Example 13::WO2022070068, Example 22; Racemic 7-Fluoro-6-(5-(1-hydroxyethyl)-1-methyl-1H-1,2,4-triazol-3-yl)-4- isopropyl-2-(o-tolyl)isoquinolin-1(2H)-one.::WO2022070068, Example 5; (R*)-7-Fluoro-6-(5-(1-hydroxyethyl)-1-methyl-1H-1,2,4-triazol-3-yl)-4-isopropyl- 2-(o-tolyl)isoquinolin-1(2H)-one.::WO2022070068, Example 12::WO2022070068, Example 21

> <Curation/DataSource>
Curated from the literature by BindingDB

> <Article DOI>
?

> <PMID>
WO2022070068

> <Patent Number>
?

> <Authors>
Lindsey, D; Scott, K; Zhuming, Z

> <Link to Ligand in BindingDB>
http://www.bindingdb.org/bind/chemsearch/marvin/MolStructure.jsp?monomerid=530441; http://www.bindingdb.org/bind/chemsearch/marvin/MolStructure.jsp?monomerid=530433; http://www.bindingdb.org/bind/chemsearch/marvin/MolStructure.jsp?monomerid=530440

> <Link to Ligand-Target Pair in BindingDB>
http://www.bindingdb.org/jsp/dbsearch/PrimarySearch_ki.jsp?energyterm=kJ/mole&tag=r21&monomerid=530441&enzyme=Dihydroorotate+dehydrogenase&column=ki&startPg=0&Increment=50&submit=Search; http://www.bindingdb.org/jsp/dbsearch/PrimarySearch_ki.jsp?energyterm=kJ/mole&tag=r21&monomerid=530433&enzyme=Dihydroorotate+dehydrogenase&column=ki&startPg=0&Increment=50&submit=Search; http://www.bindingdb.org/jsp/dbsearch/PrimarySearch_ki.jsp?energyterm=kJ/mole&tag=r21&monomerid=530440&enzyme=Dihydroorotate+dehydrogenase&column=ki&startPg=0&Increment=50&submit=Search

> <PubChem CID>
?

> <PubChem SID>
?

$$$$

  Mrv2115 07222212352D          

 30 33  0  0  0  0            999 V2000
   -0.7145    1.2375    0.0000 C   0  0  0  0  0  0  0  0  0  0  0  0
    0.0000    0.8250    0.0000 C   0  0  0  0  0  0  0  0  0  0  0  0
    0.0000   -0.0000    0.0000 O   0  0  0  0  0  0  0  0  0  0  0  0
    0.7145   -0.4125    0.0000 C   0  0  0  0  0  0  0  0  0  0  0  0
    1.4289   -0.0000    0.0000 O   0  0  0  0  0  0  0  0  0  0  0  0
    0.7145   -1.2375    0.0000 C   0  0  0  0  0  0  0  0  0  0  0  0
    1.3819   -1.7224    0.0000 S   0  0  0  0  0  0  0  0  0  0  0  0
    1.1270   -2.5070    0.0000 C   0  0  0  0  0  0  0  0  0  0  0  0
    1.6119   -3.1745    0.0000 N   0  0  0  0  0  0  0  0  0  0  0  0
    1.2763   -3.9282    0.0000 C   0  0  0  0  0  0  0  0  0  0  0  0
    1.7613   -4.5956    0.0000 C   0  0  0  0  0  0  0  0  0  0  0  0
    1.4257   -5.3493    0.0000 C   0  0  0  0  0  0  0  0  0  0  0  0
    0.6052   -5.4355    0.0000 C   0  0  0  0  0  0  0  0  0  0  0  0
    0.2697   -6.1892    0.0000 C   0  0  0  0  0  0  0  0  0  0  0  0
    0.7546   -6.8566    0.0000 C   0  0  0  0  0  0  0  0  0  0  0  0
    0.4190   -7.6103    0.0000 C   0  0  0  0  0  0  0  0  0  0  0  0
   -0.4015   -7.6965    0.0000 C   0  0  0  0  0  0  0  0  0  0  0  0
   -0.8864   -7.0291    0.0000 C   0  0  0  0  0  0  0  0  0  0  0  0
   -0.5508   -6.2754    0.0000 C   0  0  0  0  0  0  0  0  0  0  0  0
    0.1203   -4.7681    0.0000 C   0  0  0  0  0  0  0  0  0  0  0  0
    0.4559   -4.0144    0.0000 C   0  0  0  0  0  0  0  0  0  0  0  0
   -0.0291   -3.3470    0.0000 F   0  0  0  0  0  0  0  0  0  0  0  0
    0.3020   -2.5070    0.0000 N   0  0  0  0  0  0  0  0  0  0  0  0
    0.0470   -1.7224    0.0000 C   0  0  0  0  0  0  0  0  0  0  0  0
   -0.7376   -1.4675    0.0000 C   0  0  0  0  0  0  0  0  0  0  0  0
   -1.3507   -2.0195    0.0000 C   0  0  0  0  0  0  0  0  0  0  0  0
   -2.1353   -1.7646    0.0000 C   0  0  0  0  0  0  0  0  0  0  0  0
   -2.3068   -0.9576    0.0000 C   0  0  0  0  0  0  0  0  0  0  0  0
   -1.6937   -0.4056    0.0000 C   0  0  0  0  0  0  0  0  0  0  0  0
   -0.9091   -0.6605    0.0000 C   0  0  0  0  0  0  0  0  0  0  0  0
  1  2  1  0  0  0  0
  2  3  1  0  0  0  0
  3  4  1  0  0  0  0
  4  5  2  0  0  0  0
  4  6  1  0  0  0  0
  6  7  4  0  0  0  0
  7  8  4  0  0  0  0
  8  9  1  0  0  0  0
  9 10  1  0  0  0  0
 10 11  4  0  0  0  0
 11 12  4  0  0  0  0
 12 13  4  0  0  0  0
 13 14  1  0  0  0  0
 14 15  4  0  0  0  0
 15 16  4  0  0  0  0
 16 17  4  0  0  0  0
 17 18  4  0  0  0  0
 18 19  4  0  0  0  0
 14 19  4  0  0  0  0
 13 20  4  0  0  0  0
 20 21  4  0  0  0  0
 10 21  4  0  0  0  0
 21 22  1  0  0  0  0
  8 23  4  0  0  0  0
 23 24  4  0  0  0  0
  6 24  4  0  0  0  0
 24 25  1  0  0  0  0
 25 26  4  0  0  0  0
 26 27  4  0  0  0  0
 27 28  4  0  0  0  0
 28 29  4  0  0  0  0
 29 30  4  0  0  0  0
 25 30  4  0  0  0  0
M  END
> <IC50(uM)>
10.0

> <Outcome>
0.0

> <BindingDB ID>
50312494

> <BindingDB MonomerID>
50071801

> <BindingDB Ligand Name>
CHEMBL3410614

> <Curation/DataSource>
ChEMBL

> <Article DOI>
10.1021/jm501127s

> <PMID>
25580811

> <Patent Number>
?

> <Authors>
Zhu, J; Han, L; Diao, Y; Ren, X; Xu, M; Xu, L; Li, S; Li, Q; Dong, D; Huang, J; Liu, X; Zhao, Z; Wang, R; Zhu, L; Xu, Y; Qian, X; Li, H

> <Link to Ligand in BindingDB>
http://www.bindingdb.org/bind/chemsearch/marvin/MolStructure.jsp?monomerid=50071801

> <Link to Ligand-Target Pair in BindingDB>
http://www.bindingdb.org/jsp/dbsearch/PrimarySearch_ki.jsp?energyterm=kJ/mole&tag=r21&monomerid=50071801&enzyme=Dihydroorotate+dehydrogenase&column=ki&startPg=0&Increment=50&submit=Search

> <PubChem CID>
118732522

> <PubChem SID>
103965511

$$$$

  Mrv2115 07222212352D          

 24 26  0  0  0  0            999 V2000
    2.0367    0.3509    0.0000 N   0  0  0  0  0  0  0  0  0  0  0  0
    2.0367   -0.4741    0.0000 C   0  0  0  0  0  0  0  0  0  0  0  0
    2.0367   -1.2991    0.0000 C   0  0  0  0  0  0  0  0  0  0  0  0
    2.7041   -1.7840    0.0000 C   0  0  0  0  0  0  0  0  0  0  0  0
    3.4888   -1.5291    0.0000 C   0  0  0  0  0  0  0  0  0  0  0  0
    3.6603   -0.7221    0.0000 C   0  0  0  0  0  0  0  0  0  0  0  0
    4.4449   -0.4672    0.0000 C   0  0  0  0  0  0  0  0  0  0  0  0
    5.0580   -1.0192    0.0000 C   0  0  0  0  0  0  0  0  0  0  0  0
    4.8865   -1.8262    0.0000 C   0  0  0  0  0  0  0  0  0  0  0  0
    4.1019   -2.0811    0.0000 C   0  0  0  0  0  0  0  0  0  0  0  0
    2.4492   -2.5687    0.0000 N   0  0  0  0  0  0  0  0  0  0  0  0
    1.6242   -2.5687    0.0000 N   0  0  0  0  0  0  0  0  0  0  0  0
    1.3693   -1.7840    0.0000 C   0  0  0  0  0  0  0  0  0  0  0  0
    0.5846   -1.5291    0.0000 N   0  0  0  0  0  0  0  0  0  0  0  0
    0.4131   -0.7221    0.0000 C   0  0  0  0  0  0  0  0  0  0  0  0
   -0.3715   -0.4672    0.0000 C   0  0  0  0  0  0  0  0  0  0  0  0
   -0.5430    0.3398    0.0000 C   0  0  0  0  0  0  0  0  0  0  0  0
    0.0701    0.8918    0.0000 C   0  0  0  0  0  0  0  0  0  0  0  0
   -0.1015    1.6988    0.0000 C   0  0  0  0  0  0  0  0  0  0  0  0
   -0.2730    2.5058    0.0000 F   0  0  0  0  0  0  0  0  0  0  0  0
    0.7055    1.8703    0.0000 F   0  0  0  0  0  0  0  0  0  0  0  0
   -0.9084    1.5273    0.0000 F   0  0  0  0  0  0  0  0  0  0  0  0
    0.8547    0.6369    0.0000 C   0  0  0  0  0  0  0  0  0  0  0  0
    1.0262   -0.1701    0.0000 C   0  0  0  0  0  0  0  0  0  0  0  0
  1  2  3  0  0  0  0
  2  3  1  0  0  0  0
  3  4  4  0  0  0  0
  4  5  1  0  0  0  0
  5  6  4  0  0  0  0
  6  7  4  0  0  0  0
  7  8  4  0  0  0  0
  8  9  4  0  0  0  0
  9 10  4  0  0  0  0
  5 10  4  0  0  0  0
  4 11  4  0  0  0  0
 11 12  4  0  0  0  0
 12 13  4  0  0  0  0
  3 13  4  0  0  0  0
 13 14  1  0  0  0  0
 14 15  1  0  0  0  0
 15 16  4  0  0  0  0
 16 17  4  0  0  0  0
 17 18  4  0  0  0  0
 18 19  1  0  0  0  0
 19 20  1  0  0  0  0
 19 21  1  0  0  0  0
 19 22  1  0  0  0  0
 18 23  4  0  0  0  0
 23 24  4  0  0  0  0
 15 24  4  0  0  0  0
M  STY  1   1 DAT
M  SAL   1  1  12
M  SDT   1 MRV_IMPLICIT_H                                        
M  SDD   1     0.5304   -0.4125    DR    ALL  0       0  
M  SED   1 IMPL_H1
M  END
> <IC50(uM)>
50.0

> <Outcome>
0.0

> <BindingDB ID>
50786795

> <BindingDB MonomerID>
50066607

> <BindingDB Ligand Name>
5-Phenyl-3-(4-trifluoromethyl-phenylamino)-1H-pyrazole-4-carbonitrile::CHEMBL445375

> <Curation/DataSource>
ChEMBL

> <Article DOI>
10.1021/jm981028c

> <PMID>
9719606

> <Patent Number>
?

> <Authors>
Papageorgiou, C; Albert, R; Floersheim, P; Lemaire, M; Bitch, F; Weber, HP; Andersen, E; Hungerford, V; Schreier, MH

> <Link to Ligand in BindingDB>
http://www.bindingdb.org/bind/chemsearch/marvin/MolStructure.jsp?monomerid=50066607

> <Link to Ligand-Target Pair in BindingDB>
http://www.bindingdb.org/jsp/dbsearch/PrimarySearch_ki.jsp?energyterm=kJ/mole&tag=r21&monomerid=50066607&enzyme=Dihydroorotate+dehydrogenase&column=ki&startPg=0&Increment=50&submit=Search

> <PubChem CID>
10496492

> <PubChem SID>
103961227

$$$$

  Mrv2115 07222212352D          

 26 29  0  0  0  0            999 V2000
    2.5645    4.9500    0.0000 C   0  0  0  0  0  0  0  0  0  0  0  0
    3.2789    4.5375    0.0000 C   0  0  0  0  0  0  0  0  0  0  0  0
    3.9934    4.9500    0.0000 C   0  0  0  0  0  0  0  0  0  0  0  0
    4.7079    4.5375    0.0000 C   0  0  0  0  0  0  0  0  0  0  0  0
    4.7079    3.7125    0.0000 N   0  0  0  0  0  0  0  0  0  0  0  0
    3.9934    3.3000    0.0000 C   0  0  0  0  0  0  0  0  0  0  0  0
    3.9934    2.4750    0.0000 C   0  0  0  0  0  0  0  0  0  0  0  0
    4.7079    2.0625    0.0000 O   0  0  0  0  0  0  0  0  0  0  0  0
    3.2789    2.0625    0.0000 N   0  0  0  0  0  0  0  0  0  0  0  0
    3.2789    1.2375    0.0000 C   0  0  0  0  0  0  0  0  0  0  0  0
    3.9934    0.8250    0.0000 C   0  0  0  0  0  0  0  0  0  0  0  0
    3.9934    0.0000    0.0000 C   0  0  0  0  0  0  0  0  0  0  0  0
    3.2789   -0.4125    0.0000 C   0  0  0  0  0  0  0  0  0  0  0  0
    2.5645    0.0000    0.0000 C   0  0  0  0  0  0  0  0  0  0  0  0
    2.5645    0.8250    0.0000 C   0  0  0  0  0  0  0  0  0  0  0  0
    1.7798    1.0799    0.0000 C   0  0  0  0  0  0  0  0  0  0  0  0
    1.2949    0.4125    0.0000 N   0  0  0  0  0  0  0  0  0  0  0  0
    1.7798   -0.2549    0.0000 N   0  0  0  0  0  0  0  0  0  0  0  0
    1.5249   -1.0396    0.0000 C   0  0  0  0  0  0  0  0  0  0  0  0
    2.0769   -1.6527    0.0000 C   0  0  0  0  0  0  0  0  0  0  0  0
    1.8220   -2.4373    0.0000 C   0  0  0  0  0  0  0  0  0  0  0  0
    1.0150   -2.6088    0.0000 C   0  0  0  0  0  0  0  0  0  0  0  0
    0.4630   -1.9957    0.0000 C   0  0  0  0  0  0  0  0  0  0  0  0
    0.7179   -1.2111    0.0000 C   0  0  0  0  0  0  0  0  0  0  0  0
    0.1659   -0.5980    0.0000 F   0  0  0  0  0  0  0  0  0  0  0  0
    3.2789    3.7125    0.0000 C   0  0  0  0  0  0  0  0  0  0  0  0
  1  2  1  0  0  0  0
  2  3  4  0  0  0  0
  3  4  4  0  0  0  0
  4  5  4  0  0  0  0
  5  6  4  0  0  0  0
  6  7  1  0  0  0  0
  7  8  2  0  0  0  0
  7  9  1  0  0  0  0
  9 10  1  0  0  0  0
 10 11  1  0  0  0  0
 11 12  1  0  0  0  0
 12 13  1  0  0  0  0
 13 14  1  0  0  0  0
 14 15  4  0  0  0  0
 10 15  1  0  0  0  0
 15 16  4  0  0  0  0
 16 17  4  0  0  0  0
 17 18  4  0  0  0  0
 14 18  4  0  0  0  0
 18 19  1  0  0  0  0
 19 20  4  0  0  0  0
 20 21  4  0  0  0  0
 21 22  4  0  0  0  0
 22 23  4  0  0  0  0
 23 24  4  0  0  0  0
 19 24  4  0  0  0  0
 24 25  1  0  0  0  0
  6 26  4  0  0  0  0
  2 26  4  0  0  0  0
M  END
> <IC50(uM)>
0.0405

> <Outcome>
1.0

> <BindingDB ID>
51334943; 993110

> <BindingDB MonomerID>
477612

> <BindingDB Ligand Name>
(R)??N-(1-(2-fluorophenyl)-4,5,6,7-tetrahydro-1H-indazol-4-yl)-4-methylpicolinamide::US10889564, Example 42

> <Curation/DataSource>
ChEMBL; US Patent

> <Article DOI>
10.1021/acs.jmedchem.9b01658; ?

> <PMID>
32212728; ?

> <Patent Number>
?; US10889564

> <Authors>
Popova, G; Ladds, MJGW; Johansson, L; Saleh, A; Larsson, J; Sandberg, L; Sahlberg, SH; Qian, W; Gullberg, H; Garg, N; Gustavsson, AL; Haraldsson, M; Lane, D; Yngve, U; Lain, S; Lain, S; Drummond, C; Leeuwen, IV; Haraldsson, M; Johansson, L; Sandberg, L; Yngve, U

> <Link to Ligand in BindingDB>
http://www.bindingdb.org/bind/chemsearch/marvin/MolStructure.jsp?monomerid=477612

> <Link to Ligand-Target Pair in BindingDB>
http://www.bindingdb.org/jsp/dbsearch/PrimarySearch_ki.jsp?energyterm=kJ/mole&tag=r21&monomerid=477612&enzyme=Dihydroorotate+dehydrogenase&column=ki&startPg=0&Increment=50&submit=Search

> <PubChem CID>
129104769

> <PubChem SID>
442137229

$$$$

  Mrv2115 07222212352D          

 25 27  0  0  0  0            999 V2000
    0.7145   -3.7125    0.0000 O   0  0  0  0  0  0  0  0  0  0  0  0
    1.4289   -4.1250    0.0000 C   0  0  0  0  0  0  0  0  0  0  0  0
    2.1434   -3.7125    0.0000 O   0  0  0  0  0  0  0  0  0  0  0  0
    1.4289   -4.9500    0.0000 C   0  0  0  0  0  0  0  0  0  0  0  0
    2.0964   -5.4349    0.0000 C   0  0  0  0  0  0  0  0  0  0  0  0
    2.8810   -5.1800    0.0000 C   0  0  0  0  0  0  0  0  0  0  0  0
    3.4941   -5.7320    0.0000 O   0  0  0  0  0  0  0  0  0  0  0  0
    3.0525   -4.3730    0.0000 N   0  0  0  0  0  0  0  0  0  0  0  0
    3.8372   -4.1181    0.0000 C   0  0  0  0  0  0  0  0  0  0  0  0
    4.0087   -3.3111    0.0000 C   0  0  0  0  0  0  0  0  0  0  0  0
    4.7933   -3.0562    0.0000 C   0  0  0  0  0  0  0  0  0  0  0  0
    5.4064   -3.6082    0.0000 C   0  0  0  0  0  0  0  0  0  0  0  0
    6.1910   -3.3533    0.0000 C   0  0  0  0  0  0  0  0  0  0  0  0
    6.3625   -2.5463    0.0000 C   0  0  0  0  0  0  0  0  0  0  0  0
    7.1472   -2.2913    0.0000 C   0  0  0  0  0  0  0  0  0  0  0  0
    7.7603   -2.8434    0.0000 C   0  0  0  0  0  0  0  0  0  0  0  0
    8.5449   -2.5884    0.0000 Br  0  0  0  0  0  0  0  0  0  0  0  0
    7.5887   -3.6503    0.0000 C   0  0  0  0  0  0  0  0  0  0  0  0
    6.8041   -3.9053    0.0000 C   0  0  0  0  0  0  0  0  0  0  0  0
    5.2349   -4.4152    0.0000 C   0  0  0  0  0  0  0  0  0  0  0  0
    4.4502   -4.6701    0.0000 C   0  0  0  0  0  0  0  0  0  0  0  0
    4.2787   -5.4771    0.0000 F   0  0  0  0  0  0  0  0  0  0  0  0
    1.8414   -6.2195    0.0000 C   0  0  0  0  0  0  0  0  0  0  0  0
    1.0164   -6.2195    0.0000 C   0  0  0  0  0  0  0  0  0  0  0  0
    0.7615   -5.4349    0.0000 C   0  0  0  0  0  0  0  0  0  0  0  0
  1  2  2  0  0  0  0
  2  3  1  0  0  0  0
  2  4  1  0  0  0  0
  4  5  2  0  0  0  0
  5  6  1  0  0  0  0
  6  7  2  0  0  0  0
  6  8  1  0  0  0  0
  8  9  1  0  0  0  0
  9 10  4  0  0  0  0
 10 11  4  0  0  0  0
 11 12  4  0  0  0  0
 12 13  1  0  0  0  0
 13 14  4  0  0  0  0
 14 15  4  0  0  0  0
 15 16  4  0  0  0  0
 16 17  1  0  0  0  0
 16 18  4  0  0  0  0
 18 19  4  0  0  0  0
 13 19  4  0  0  0  0
 12 20  4  0  0  0  0
 20 21  4  0  0  0  0
  9 21  4  0  0  0  0
 21 22  1  0  0  0  0
  5 23  1  0  0  0  0
 23 24  1  0  0  0  0
 24 25  1  0  0  0  0
  4 25  1  0  0  0  0
M  END
> <IC50(uM)>
0.735

> <Outcome>
1.0

> <BindingDB ID>
50251702

> <BindingDB MonomerID>
50137288

> <BindingDB Ligand Name>
2-(4'-Bromo-3-fluoro-biphenyl-4-ylcarbamoyl)-cyclopent-1-enecarboxylic acid::CHEMBL345446

> <Curation/DataSource>
ChEMBL

> <Article DOI>
10.1016/j.bmcl.2003.10.021

> <PMID>
14684297

> <Patent Number>
?

> <Authors>
Leban, J; Saeb, W; Garcia, G; Baumgartner, R; Kramer, B

> <Link to Ligand in BindingDB>
http://www.bindingdb.org/bind/chemsearch/marvin/MolStructure.jsp?monomerid=50137288

> <Link to Ligand-Target Pair in BindingDB>
http://www.bindingdb.org/jsp/dbsearch/PrimarySearch_ki.jsp?energyterm=kJ/mole&tag=r21&monomerid=50137288&enzyme=Dihydroorotate+dehydrogenase&column=ki&startPg=0&Increment=50&submit=Search

> <PubChem CID>
44369844

> <PubChem SID>
104027454

$$$$

  Mrv2115 07222212352D          

 22 22  0  0  0  0            999 V2000
   -2.1434   -2.0625    0.0000 C   0  0  0  0  0  0  0  0  0  0  0  0
   -1.4289   -2.4750    0.0000 C   0  0  0  0  0  0  0  0  0  0  0  0
   -1.8414   -3.1895    0.0000 C   0  0  0  0  0  0  0  0  0  0  0  0
   -1.0164   -1.7605    0.0000 C   0  0  0  0  0  0  0  0  0  0  0  0
   -0.7145   -2.8875    0.0000 O   0  0  0  0  0  0  0  0  0  0  0  0
    0.0000   -2.4750    0.0000 C   0  0  0  0  0  0  0  0  0  0  0  0
    0.0000   -1.6500    0.0000 O   0  0  0  0  0  0  0  0  0  0  0  0
    0.7145   -2.8875    0.0000 N   0  0  0  0  0  0  0  0  0  0  0  0
    1.4289   -2.4750    0.0000 C   0  0  0  0  0  0  0  0  0  0  0  0
    2.1434   -2.8875    0.0000 C   0  0  0  0  0  0  0  0  0  0  0  0
    2.8579   -2.4750    0.0000 C   0  0  0  0  0  0  0  0  0  0  0  0
    3.5724   -2.8875    0.0000 C   0  0  0  0  0  0  0  0  0  0  0  0
    4.2868   -2.4750    0.0000 C   0  0  0  0  0  0  0  0  0  0  0  0
    4.2868   -1.6500    0.0000 C   0  0  0  0  0  0  0  0  0  0  0  0
    5.0013   -1.2375    0.0000 O   0  0  0  0  0  0  0  0  0  0  0  0
    3.5724   -1.2375    0.0000 O   0  0  0  0  0  0  0  0  0  0  0  0
    5.0013   -2.8875    0.0000 N   0  0  0  0  0  0  0  0  0  0  0  0
    5.0013   -3.7125    0.0000 C   0  0  0  0  0  0  0  0  0  0  0  0
    5.7158   -4.1250    0.0000 O   0  0  0  0  0  0  0  0  0  0  0  0
    4.2868   -4.1250    0.0000 N   0  0  0  0  0  0  0  0  0  0  0  0
    3.5724   -3.7125    0.0000 C   0  0  0  0  0  0  0  0  0  0  0  0
    2.8579   -4.1250    0.0000 O   0  0  0  0  0  0  0  0  0  0  0  0
  1  2  1  0  0  0  0
  2  3  1  0  0  0  0
  2  4  1  0  0  0  0
  2  5  1  0  0  0  0
  5  6  1  0  0  0  0
  6  7  2  0  0  0  0
  6  8  1  0  0  0  0
  8  9  1  0  0  0  0
  9 10  1  0  0  0  0
 10 11  1  0  0  0  0
 11 12  1  0  0  0  0
 12 13  4  0  0  0  0
 13 14  1  0  0  0  0
 14 15  2  0  0  0  0
 14 16  1  0  0  0  0
 13 17  4  0  0  0  0
 17 18  4  0  0  0  0
 18 19  2  0  0  0  0
 18 20  4  0  0  0  0
 20 21  4  0  0  0  0
 12 21  4  0  0  0  0
 21 22  2  0  0  0  0
M  STY  2   1 DAT   2 DAT
M  SAL   1  1  17
M  SDT   1 MRV_IMPLICIT_H                                        
M  SDD   1     0.5304   -0.4125    DR    ALL  0       0  
M  SED   1 IMPL_H1
M  SAL   2  1  20
M  SDT   2 MRV_IMPLICIT_H                                        
M  SDD   2     0.6482   -0.4125    DR    ALL  0       0  
M  SED   2 IMPL_H1
M  END
> <IC50(uM)>
0.625

> <Outcome>
1.0

> <BindingDB ID>
50555382

> <BindingDB MonomerID>
50211949

> <BindingDB Ligand Name>
CHEMBL3952177

> <Curation/DataSource>
ChEMBL

> <Article DOI>
10.1016/j.bmc.2017.01.009

> <PMID>
28118956

> <Patent Number>
?

> <Authors>
Inaoka, DK; Iida, M; Hashimoto, S; Tabuchi, T; Kuranaga, T; Balogun, EO; Honma, T; Tanaka, A; Harada, S; Nara, T; Kita, K; Inoue, M

> <Link to Ligand in BindingDB>
http://www.bindingdb.org/bind/chemsearch/marvin/MolStructure.jsp?monomerid=50211949

> <Link to Ligand-Target Pair in BindingDB>
http://www.bindingdb.org/jsp/dbsearch/PrimarySearch_ki.jsp?energyterm=kJ/mole&tag=r21&monomerid=50211949&enzyme=Dihydroorotate+dehydrogenase&column=ki&startPg=0&Increment=50&submit=Search

> <PubChem CID>
134144586

> <PubChem SID>
375983074

$$$$

  Mrv2115 07222212352D          

 39 43  0  0  0  0            999 V2000
   -5.1659    0.0165    0.0000 C   0  0  0  0  0  0  0  0  0  0  0  0
   -5.5784   -0.6979    0.0000 C   0  0  0  0  0  0  0  0  0  0  0  0
   -6.4034   -0.6979    0.0000 C   0  0  0  0  0  0  0  0  0  0  0  0
   -6.8159   -1.4124    0.0000 C   0  0  0  0  0  0  0  0  0  0  0  0
   -6.4034   -2.1269    0.0000 C   0  0  0  0  0  0  0  0  0  0  0  0
   -5.5784   -2.1269    0.0000 C   0  0  0  0  0  0  0  0  0  0  0  0
   -5.1659   -2.8414    0.0000 C   0  0  0  0  0  0  0  0  0  0  0  0
   -4.3409   -2.8414    0.0000 O   0  0  0  0  0  0  0  0  0  0  0  0
   -5.5784   -3.5558    0.0000 O   0  0  0  0  0  0  0  0  0  0  0  0
   -5.1659   -1.4124    0.0000 C   0  0  0  0  0  0  0  0  0  0  0  0
   -4.3409   -1.4124    0.0000 N   0  0  0  0  0  0  0  0  0  0  0  0
   -3.9284   -0.6979    0.0000 C   0  0  0  0  0  0  0  0  0  0  0  0
   -4.3409    0.0165    0.0000 O   0  0  0  0  0  0  0  0  0  0  0  0
   -3.1034   -0.6979    0.0000 C   0  0  0  0  0  0  0  0  0  0  0  0
   -2.6909    0.0165    0.0000 C   0  0  0  0  0  0  0  0  0  0  0  0
   -1.8659    0.0165    0.0000 C   0  0  0  0  0  0  0  0  0  0  0  0
   -1.4534    0.7310    0.0000 F   0  0  0  0  0  0  0  0  0  0  0  0
   -1.4534   -0.6979    0.0000 C   0  0  0  0  0  0  0  0  0  0  0  0
   -0.6284   -0.6979    0.0000 N   0  0  0  0  0  0  0  0  0  0  0  0
   -0.1435   -1.3654    0.0000 N   0  0  0  0  0  0  0  0  0  0  0  0
    0.6411   -1.1104    0.0000 C   0  0  0  0  0  0  0  0  0  0  0  0
    0.6411   -0.2854    0.0000 N   0  0  0  0  0  0  0  0  0  0  0  0
   -0.1435   -0.0305    0.0000 C   0  0  0  0  0  0  0  0  0  0  0  0
   -0.3984    0.7541    0.0000 O   0  0  0  0  0  0  0  0  0  0  0  0
    1.3556    0.1271    0.0000 C   0  0  0  0  0  0  0  0  0  0  0  0
    2.0701   -0.2854    0.0000 C   0  0  0  0  0  0  0  0  0  0  0  0
    2.0701   -1.1104    0.0000 C   0  0  0  0  0  0  0  0  0  0  0  0
    1.3556   -1.5229    0.0000 C   0  0  0  0  0  0  0  0  0  0  0  0
   -1.8659   -1.4124    0.0000 C   0  0  0  0  0  0  0  0  0  0  0  0
   -2.6909   -1.4124    0.0000 C   0  0  0  0  0  0  0  0  0  0  0  0
   -3.1034   -2.1269    0.0000 O   0  0  0  0  0  0  0  0  0  0  0  0
   -2.6909   -2.8414    0.0000 C   0  0  0  0  0  0  0  0  0  0  0  0
   -1.8659   -2.8414    0.0000 C   0  0  0  0  0  0  0  0  0  0  0  0
   -3.1034   -3.5558    0.0000 C   0  0  0  0  0  0  0  0  0  0  0  0
   -2.6909   -4.2703    0.0000 C   0  0  0  0  0  0  0  0  0  0  0  0
   -3.1034   -4.9848    0.0000 C   0  0  0  0  0  0  0  0  0  0  0  0
   -3.9284   -4.9848    0.0000 C   0  0  0  0  0  0  0  0  0  0  0  0
   -4.3409   -4.2703    0.0000 C   0  0  0  0  0  0  0  0  0  0  0  0
   -3.9284   -3.5558    0.0000 C   0  0  0  0  0  0  0  0  0  0  0  0
  1  2  1  0  0  0  0
  2  3  4  0  0  0  0
  3  4  4  0  0  0  0
  4  5  4  0  0  0  0
  5  6  4  0  0  0  0
  6  7  1  0  0  0  0
  7  8  2  0  0  0  0
  7  9  1  0  0  0  0
  6 10  4  0  0  0  0
  2 10  4  0  0  0  0
 10 11  1  0  0  0  0
 11 12  1  0  0  0  0
 12 13  2  0  0  0  0
 12 14  1  0  0  0  0
 14 15  4  0  0  0  0
 15 16  4  0  0  0  0
 16 17  1  0  0  0  0
 16 18  4  0  0  0  0
 18 19  1  0  0  0  0
 19 20  4  0  0  0  0
 20 21  4  0  0  0  0
 21 22  4  0  0  0  0
 22 23  4  0  0  0  0
 19 23  4  0  0  0  0
 23 24  2  0  0  0  0
 22 25  1  0  0  0  0
 25 26  1  0  0  0  0
 26 27  1  0  0  0  0
 27 28  1  0  0  0  0
 21 28  1  0  0  0  0
 18 29  4  0  0  0  0
 29 30  4  0  0  0  0
 14 30  4  0  0  0  0
 30 31  1  0  0  0  0
 31 32  1  0  0  0  0
 32 33  1  0  0  0  0
 32 34  1  0  0  0  0
 34 35  1  0  0  0  0
 35 36  1  0  0  0  0
 36 37  1  0  0  0  0
 37 38  1  0  0  0  0
 38 39  1  0  0  0  0
 34 39  1  0  0  0  0
M  END
> <IC50(uM)>
0.0024999999999999996

> <Outcome>
1.0

> <BindingDB ID>
1020534

> <BindingDB MonomerID>
490478

> <BindingDB Ligand Name>
2-({2-[(1S)-1-cyclohexylethoxy]-5-fluoro-4-(3-oxo-5,6,7,8-tetrahydro[1,2,4]triazolo[4,3-a]pyridin-2(3H)-yl)benzoyl}amino)-3-methylbenzoic acid::US10968216, Example 146

> <Curation/DataSource>
US Patent

> <Article DOI>
?

> <PMID>
?

> <Patent Number>
US10968216

> <Authors>
Gradl, SN; Nguyen, D; Eis, K; Gunther, J; Stellfeld, T; Janzer, A; Christian, S; Mueller, T; Sheikh, SE; Zhou, HJ; Zhao, C; Sykes, DB; Ferrara, SJ; Liu, K; Herbert, SA; Merz, C; Niehues, M; Nising, CF; Schafer, M; Zimmermann, K; Knablein, J; Thede, K; Faupel, T

> <Link to Ligand in BindingDB>
http://www.bindingdb.org/bind/chemsearch/marvin/MolStructure.jsp?monomerid=490478

> <Link to Ligand-Target Pair in BindingDB>
http://www.bindingdb.org/jsp/dbsearch/PrimarySearch_ki.jsp?energyterm=kJ/mole&tag=r21&monomerid=490478&enzyme=Dihydroorotate+dehydrogenase&column=ki&startPg=0&Increment=50&submit=Search

> <PubChem CID>
153291224

> <PubChem SID>
447117205

$$$$

  Mrv2115 07222212352D          

 26 28  0  0  0  0            999 V2000
    0.7145   11.7161    0.0000 C   0  0  0  0  0  0  0  0  0  0  0  0
    0.7145   10.8911    0.0000 O   0  0  0  0  0  0  0  0  0  0  0  0
    1.4289   10.4786    0.0000 C   0  0  0  0  0  0  0  0  0  0  0  0
    2.1434   10.8911    0.0000 C   0  0  0  0  0  0  0  0  0  0  0  0
    2.8579   10.4786    0.0000 C   0  0  0  0  0  0  0  0  0  0  0  0
    2.8579    9.6536    0.0000 C   0  0  0  0  0  0  0  0  0  0  0  0
    2.1434    9.2411    0.0000 C   0  0  0  0  0  0  0  0  0  0  0  0
    2.1434    8.4161    0.0000 C   0  0  0  0  0  0  0  0  0  0  0  0
    2.8579    8.0036    0.0000 C   0  0  0  0  0  0  0  0  0  0  0  0
    2.8579    7.1786    0.0000 C   0  0  0  0  0  0  0  0  0  0  0  0
    2.1434    6.7661    0.0000 C   0  0  0  0  0  0  0  0  0  0  0  0
    2.1434    5.9411    0.0000 N   0  0  0  0  0  0  0  0  0  0  0  0
    1.4289    5.5286    0.0000 C   0  0  0  0  0  0  0  0  0  0  0  0
    0.7145    5.9411    0.0000 O   0  0  0  0  0  0  0  0  0  0  0  0
    1.4289    4.7036    0.0000 C   0  0  0  0  0  0  0  0  0  0  0  0
    2.0964    4.2187    0.0000 C   0  0  0  0  0  0  0  0  0  0  0  0
    1.8414    3.4340    0.0000 C   0  0  0  0  0  0  0  0  0  0  0  0
    1.0164    3.4340    0.0000 S   0  0  0  0  0  0  0  0  0  0  0  0
    0.7615    4.2187    0.0000 C   0  0  0  0  0  0  0  0  0  0  0  0
   -0.0231    4.4736    0.0000 C   0  0  0  0  0  0  0  0  0  0  0  0
   -0.6362    3.9216    0.0000 O   0  0  0  0  0  0  0  0  0  0  0  0
   -0.1946    5.2806    0.0000 O   0  0  0  0  0  0  0  0  0  0  0  0
    1.4289    7.1786    0.0000 C   0  0  0  0  0  0  0  0  0  0  0  0
    0.7145    6.7661    0.0000 F   0  0  0  0  0  0  0  0  0  0  0  0
    1.4289    8.0036    0.0000 C   0  0  0  0  0  0  0  0  0  0  0  0
    1.4289    9.6536    0.0000 C   0  0  0  0  0  0  0  0  0  0  0  0
  1  2  1  0  0  0  0
  2  3  1  0  0  0  0
  3  4  4  0  0  0  0
  4  5  4  0  0  0  0
  5  6  4  0  0  0  0
  6  7  4  0  0  0  0
  7  8  1  0  0  0  0
  8  9  4  0  0  0  0
  9 10  4  0  0  0  0
 10 11  4  0  0  0  0
 11 12  1  0  0  0  0
 12 13  1  0  0  0  0
 13 14  2  0  0  0  0
 13 15  1  0  0  0  0
 15 16  4  0  0  0  0
 16 17  4  0  0  0  0
 17 18  4  0  0  0  0
 18 19  4  0  0  0  0
 15 19  4  0  0  0  0
 19 20  1  0  0  0  0
 20 21  2  0  0  0  0
 20 22  1  0  0  0  0
 11 23  4  0  0  0  0
 23 24  1  0  0  0  0
 23 25  4  0  0  0  0
  8 25  4  0  0  0  0
  7 26  4  0  0  0  0
  3 26  4  0  0  0  0
M  END
> <IC50(uM)>
0.044

> <Outcome>
1.0

> <BindingDB ID>
28079; 29217

> <BindingDB MonomerID>
16114

> <BindingDB Ligand Name>
3-{[2-fluoro-4-(3-methoxyphenyl)phenyl]carbamoyl}thiophene-2-carboxylic acid::Biphenyl-4-ylcarbamoyl Thiophene Analog 5::Compound 6

> <Curation/DataSource>
Curated from the literature by BindingDB

> <Article DOI>
10.1021/jm0506975; 10.1016/j.bmcl.2005.10.011

> <PMID>
16480261; 16246558

> <Patent Number>
?

> <Authors>
Baumgartner, R; Walloschek, M; Kralik, M; Gotschlich, A; Tasler, S; Mies, J; Leban, J; Leban, J; Kralik, M; Mies, J; Baumgartner, R; Gassen, M; Tasler, S

> <Link to Ligand in BindingDB>
http://www.bindingdb.org/bind/chemsearch/marvin/MolStructure.jsp?monomerid=16114

> <Link to Ligand-Target Pair in BindingDB>
http://www.bindingdb.org/jsp/dbsearch/PrimarySearch_ki.jsp?energyterm=kJ/mole&tag=r21&monomerid=16114&enzyme=Dihydroorotate+dehydrogenase&column=ki&startPg=0&Increment=50&submit=Search; http://www.bindingdb.org/jsp/dbsearch/PrimarySearch_ki.jsp?energyterm=kJ/mole&tag=r21&monomerid=16114&enzyme=Dihydroorotate+Dehydrogenase+%28DHODH%29&column=ki&startPg=0&Increment=50&submit=Search

> <PubChem CID>
15942657

> <PubChem SID>
46516373

$$$$

  Mrv2115 07222212352D          

 21 24  0  0  0  0            999 V2000
    3.3523   -0.2854    0.0000 O   0  0  0  0  0  0  0  0  0  0  0  0
    3.3523   -1.1104    0.0000 C   0  0  0  0  0  0  0  0  0  0  0  0
    4.0668   -1.5229    0.0000 C   0  0  0  0  0  0  0  0  0  0  0  0
    4.7812   -1.1104    0.0000 C   0  0  0  0  0  0  0  0  0  0  0  0
    5.4957   -1.5229    0.0000 C   0  0  0  0  0  0  0  0  0  0  0  0
    5.4957   -2.3479    0.0000 C   0  0  0  0  0  0  0  0  0  0  0  0
    4.7812   -2.7604    0.0000 C   0  0  0  0  0  0  0  0  0  0  0  0
    4.0668   -2.3479    0.0000 C   0  0  0  0  0  0  0  0  0  0  0  0
    3.3523   -2.7604    0.0000 C   0  0  0  0  0  0  0  0  0  0  0  0
    3.3523   -3.5854    0.0000 O   0  0  0  0  0  0  0  0  0  0  0  0
    2.6378   -2.3479    0.0000 C   0  0  0  0  0  0  0  0  0  0  0  0
    2.6378   -1.5229    0.0000 C   0  0  0  0  0  0  0  0  0  0  0  0
    1.8532   -1.2680    0.0000 N   0  0  0  0  0  0  0  0  0  0  0  0
    1.3683   -1.9354    0.0000 N   0  0  0  0  0  0  0  0  0  0  0  0
    1.8532   -2.6029    0.0000 N   0  0  0  0  0  0  0  0  0  0  0  0
    1.5983   -3.3875    0.0000 C   0  0  0  0  0  0  0  0  0  0  0  0
    2.1503   -4.0006    0.0000 C   0  0  0  0  0  0  0  0  0  0  0  0
    1.8953   -4.7852    0.0000 C   0  0  0  0  0  0  0  0  0  0  0  0
    1.0884   -4.9567    0.0000 N   0  0  0  0  0  0  0  0  0  0  0  0
    0.5363   -4.3437    0.0000 C   0  0  0  0  0  0  0  0  0  0  0  0
    0.7913   -3.5590    0.0000 C   0  0  0  0  0  0  0  0  0  0  0  0
  1  2  2  0  0  0  0
  2  3  1  0  0  0  0
  3  4  4  0  0  0  0
  4  5  4  0  0  0  0
  5  6  4  0  0  0  0
  6  7  4  0  0  0  0
  7  8  4  0  0  0  0
  3  8  4  0  0  0  0
  8  9  1  0  0  0  0
  9 10  2  0  0  0  0
  9 11  1  0  0  0  0
 11 12  4  0  0  0  0
  2 12  1  0  0  0  0
 12 13  4  0  0  0  0
 13 14  4  0  0  0  0
 14 15  4  0  0  0  0
 11 15  4  0  0  0  0
 15 16  1  0  0  0  0
 16 17  4  0  0  0  0
 17 18  4  0  0  0  0
 18 19  4  0  0  0  0
 19 20  4  0  0  0  0
 20 21  4  0  0  0  0
 16 21  4  0  0  0  0
M  END
> <IC50(uM)>
1.0

> <Outcome>
1.0

> <BindingDB ID>
51338173

> <BindingDB MonomerID>
50541647

> <BindingDB Ligand Name>
CHEMBL4645719

> <Curation/DataSource>
ChEMBL

> <Article DOI>
10.1021/acs.jmedchem.0c00512

> <PMID>
32496056

> <Patent Number>
?

> <Authors>
Zuo, Z; Liu, X; Qian, X; Zeng, T; Sang, N; Liu, H; Zhou, Y; Tao, L; Zhou, X; Su, N; Yu, Y; Chen, Q; Luo, Y; Zhao, Y

> <Link to Ligand in BindingDB>
http://www.bindingdb.org/bind/chemsearch/marvin/MolStructure.jsp?monomerid=50541647

> <Link to Ligand-Target Pair in BindingDB>
http://www.bindingdb.org/jsp/dbsearch/PrimarySearch_ki.jsp?energyterm=kJ/mole&tag=r21&monomerid=50541647&enzyme=Dihydroorotate+dehydrogenase&column=ki&startPg=0&Increment=50&submit=Search

> <PubChem CID>
156019920

> <PubChem SID>
442143210

$$$$

  Mrv2115 07222212352D          

 37 41  0  0  0  0            999 V2000
   -5.1659   -2.8414    0.0000 C   0  0  0  0  0  0  0  0  0  0  0  0
   -5.5784   -2.1269    0.0000 C   0  0  0  0  0  0  0  0  0  0  0  0
   -6.4034   -2.1269    0.0000 C   0  0  0  0  0  0  0  0  0  0  0  0
   -6.8159   -2.8414    0.0000 F   0  0  0  0  0  0  0  0  0  0  0  0
   -6.8159   -1.4124    0.0000 C   0  0  0  0  0  0  0  0  0  0  0  0
   -6.4034   -0.6979    0.0000 C   0  0  0  0  0  0  0  0  0  0  0  0
   -5.5784   -0.6979    0.0000 C   0  0  0  0  0  0  0  0  0  0  0  0
   -5.1659   -1.4124    0.0000 C   0  0  0  0  0  0  0  0  0  0  0  0
   -4.3409   -1.4124    0.0000 N   0  0  0  0  0  0  0  0  0  0  0  0
   -3.9284   -0.6979    0.0000 C   0  0  0  0  0  0  0  0  0  0  0  0
   -4.3409    0.0165    0.0000 O   0  0  0  0  0  0  0  0  0  0  0  0
   -3.1034   -0.6979    0.0000 C   0  0  0  0  0  0  0  0  0  0  0  0
   -2.6909    0.0165    0.0000 C   0  0  0  0  0  0  0  0  0  0  0  0
   -1.8659    0.0165    0.0000 C   0  0  0  0  0  0  0  0  0  0  0  0
   -1.4534    0.7310    0.0000 F   0  0  0  0  0  0  0  0  0  0  0  0
   -1.4534   -0.6979    0.0000 C   0  0  0  0  0  0  0  0  0  0  0  0
   -0.6284   -0.6979    0.0000 N   0  0  0  0  0  0  0  0  0  0  0  0
   -0.1435   -1.3654    0.0000 N   0  0  0  0  0  0  0  0  0  0  0  0
    0.6411   -1.1104    0.0000 C   0  0  0  0  0  0  0  0  0  0  0  0
    0.6411   -0.2854    0.0000 N   0  0  0  0  0  0  0  0  0  0  0  0
   -0.1435   -0.0305    0.0000 C   0  0  0  0  0  0  0  0  0  0  0  0
   -0.3984    0.7541    0.0000 O   0  0  0  0  0  0  0  0  0  0  0  0
    1.3556    0.1271    0.0000 C   0  0  0  0  0  0  0  0  0  0  0  0
    2.0701   -0.2854    0.0000 C   0  0  0  0  0  0  0  0  0  0  0  0
    2.0701   -1.1104    0.0000 C   0  0  0  0  0  0  0  0  0  0  0  0
    1.3556   -1.5229    0.0000 C   0  0  0  0  0  0  0  0  0  0  0  0
   -1.8659   -1.4124    0.0000 C   0  0  0  0  0  0  0  0  0  0  0  0
   -2.6909   -1.4124    0.0000 C   0  0  0  0  0  0  0  0  0  0  0  0
   -3.1034   -2.1269    0.0000 O   0  0  0  0  0  0  0  0  0  0  0  0
   -2.6909   -2.8414    0.0000 C   0  0  0  0  0  0  0  0  0  0  0  0
   -1.8659   -2.8414    0.0000 C   0  0  0  0  0  0  0  0  0  0  0  0
   -3.1034   -3.5558    0.0000 C   0  0  0  0  0  0  0  0  0  0  0  0
   -2.6909   -4.2703    0.0000 C   0  0  0  0  0  0  0  0  0  0  0  0
   -3.1034   -4.9848    0.0000 C   0  0  0  0  0  0  0  0  0  0  0  0
   -3.9284   -4.9848    0.0000 C   0  0  0  0  0  0  0  0  0  0  0  0
   -4.3409   -4.2703    0.0000 C   0  0  0  0  0  0  0  0  0  0  0  0
   -3.9284   -3.5558    0.0000 C   0  0  0  0  0  0  0  0  0  0  0  0
  1  2  1  0  0  0  0
  2  3  4  0  0  0  0
  3  4  1  0  0  0  0
  3  5  4  0  0  0  0
  5  6  4  0  0  0  0
  6  7  4  0  0  0  0
  7  8  4  0  0  0  0
  2  8  4  0  0  0  0
  8  9  1  0  0  0  0
  9 10  1  0  0  0  0
 10 11  2  0  0  0  0
 10 12  1  0  0  0  0
 12 13  4  0  0  0  0
 13 14  4  0  0  0  0
 14 15  1  0  0  0  0
 14 16  4  0  0  0  0
 16 17  1  0  0  0  0
 17 18  4  0  0  0  0
 18 19  4  0  0  0  0
 19 20  4  0  0  0  0
 20 21  4  0  0  0  0
 17 21  4  0  0  0  0
 21 22  2  0  0  0  0
 20 23  1  0  0  0  0
 23 24  1  0  0  0  0
 24 25  1  0  0  0  0
 25 26  1  0  0  0  0
 19 26  1  0  0  0  0
 16 27  4  0  0  0  0
 27 28  4  0  0  0  0
 12 28  4  0  0  0  0
 28 29  1  0  0  0  0
 29 30  1  0  0  0  0
 30 31  1  0  0  0  0
 30 32  1  0  0  0  0
 32 33  1  0  0  0  0
 33 34  1  0  0  0  0
 34 35  1  0  0  0  0
 35 36  1  0  0  0  0
 36 37  1  0  0  0  0
 32 37  1  0  0  0  0
M  END
> <IC50(uM)>
0.017

> <Outcome>
1.0

> <BindingDB ID>
1020547

> <BindingDB MonomerID>
490486

> <BindingDB Ligand Name>
2-[(1S)-1-cyclohexylethoxy]-5-fluoro-N-(3-fluoro-2-methylphenyl)-4-(3-oxo-5,6,7,8-tetrahydro[1,2,4]triazolo[4,3-a]pyridin-2(3H)-yl)benzamide::US10968216, Example 154

> <Curation/DataSource>
US Patent

> <Article DOI>
?

> <PMID>
?

> <Patent Number>
US10968216

> <Authors>
Gradl, SN; Nguyen, D; Eis, K; Gunther, J; Stellfeld, T; Janzer, A; Christian, S; Mueller, T; Sheikh, SE; Zhou, HJ; Zhao, C; Sykes, DB; Ferrara, SJ; Liu, K; Herbert, SA; Merz, C; Niehues, M; Nising, CF; Schafer, M; Zimmermann, K; Knablein, J; Thede, K; Faupel, T

> <Link to Ligand in BindingDB>
http://www.bindingdb.org/bind/chemsearch/marvin/MolStructure.jsp?monomerid=490486

> <Link to Ligand-Target Pair in BindingDB>
http://www.bindingdb.org/jsp/dbsearch/PrimarySearch_ki.jsp?energyterm=kJ/mole&tag=r21&monomerid=490486&enzyme=Dihydroorotate+dehydrogenase&column=ki&startPg=0&Increment=50&submit=Search

> <PubChem CID>
134473944

> <PubChem SID>
447117213

$$$$

  Mrv2115 07222212352D          

 21 23  0  0  0  0            999 V2000
    0.0000   -2.4750    0.0000 O   0  0  0  0  0  0  0  0  0  0  0  0
    0.7145   -2.8875    0.0000 C   0  0  0  0  0  0  0  0  0  0  0  0
    0.7145   -3.7125    0.0000 N   0  0  0  0  0  0  0  0  0  0  0  0
    0.0000   -4.1250    0.0000 C   0  0  0  0  0  0  0  0  0  0  0  0
    0.0000   -4.9500    0.0000 C   0  0  0  0  0  0  0  0  0  0  0  0
   -0.7145   -5.3625    0.0000 C   0  0  0  0  0  0  0  0  0  0  0  0
   -1.4289   -4.9500    0.0000 C   0  0  0  0  0  0  0  0  0  0  0  0
   -2.1434   -5.3625    0.0000 Cl  0  0  0  0  0  0  0  0  0  0  0  0
   -1.4289   -4.1250    0.0000 C   0  0  0  0  0  0  0  0  0  0  0  0
   -0.7145   -3.7125    0.0000 C   0  0  0  0  0  0  0  0  0  0  0  0
    1.4289   -2.4750    0.0000 N   0  0  0  0  0  0  0  0  0  0  0  0
    1.4289   -1.6500    0.0000 C   0  0  0  0  0  0  0  0  0  0  0  0
    0.7145   -1.2375    0.0000 C   0  0  0  0  0  0  0  0  0  0  0  0
    0.7145   -0.4125    0.0000 C   0  0  0  0  0  0  0  0  0  0  0  0
    1.4289    0.0000    0.0000 C   0  0  0  0  0  0  0  0  0  0  0  0
    2.1434   -0.4125    0.0000 C   0  0  0  0  0  0  0  0  0  0  0  0
    2.8579    0.0000    0.0000 C   0  0  0  0  0  0  0  0  0  0  0  0
    3.5724   -0.4125    0.0000 C   0  0  0  0  0  0  0  0  0  0  0  0
    3.5724   -1.2375    0.0000 C   0  0  0  0  0  0  0  0  0  0  0  0
    2.8579   -1.6500    0.0000 N   0  0  0  0  0  0  0  0  0  0  0  0
    2.1434   -1.2375    0.0000 C   0  0  0  0  0  0  0  0  0  0  0  0
  1  2  2  0  0  0  0
  2  3  1  0  0  0  0
  3  4  1  0  0  0  0
  4  5  4  0  0  0  0
  5  6  4  0  0  0  0
  6  7  4  0  0  0  0
  7  8  1  0  0  0  0
  7  9  4  0  0  0  0
  9 10  4  0  0  0  0
  4 10  4  0  0  0  0
  2 11  1  0  0  0  0
 11 12  1  0  0  0  0
 12 13  4  0  0  0  0
 13 14  4  0  0  0  0
 14 15  4  0  0  0  0
 15 16  4  0  0  0  0
 16 17  4  0  0  0  0
 17 18  4  0  0  0  0
 18 19  4  0  0  0  0
 19 20  4  0  0  0  0
 20 21  4  0  0  0  0
 12 21  4  0  0  0  0
 16 21  4  0  0  0  0
M  END
> <IC50(uM)>
116.0

> <Outcome>
0.0

> <BindingDB ID>
28106

> <BindingDB MonomerID>
15358

> <BindingDB Ligand Name>
3-(4-chlorophenyl)-1-quinolin-8-ylurea::Asinex compound no. 13

> <Curation/DataSource>
Curated from the literature by BindingDB

> <Article DOI>
10.1074/jbc.M501100200

> <PMID>
15795226

> <Patent Number>
?

> <Authors>
Baldwin, J; Michnoff, CH; Malmquist, NA; White, J; Roth, MG; Rathod, PK; Phillips, MA

> <Link to Ligand in BindingDB>
http://www.bindingdb.org/bind/chemsearch/marvin/MolStructure.jsp?monomerid=15358

> <Link to Ligand-Target Pair in BindingDB>
http://www.bindingdb.org/jsp/dbsearch/PrimarySearch_ki.jsp?energyterm=kJ/mole&tag=r21&monomerid=15358&enzyme=Dihydroorotate+Dehydrogenase+%28DHODH%29&column=ki&startPg=0&Increment=50&submit=Search

> <PubChem CID>
699033

> <PubChem SID>
46515658

$$$$

  Mrv2115 07222212352D          

 20 21  0  0  0  0            999 V2000
    2.0367   -0.4741    0.0000 C   0  0  0  0  0  0  0  0  0  0  0  0
    2.0367   -1.2991    0.0000 C   0  0  0  0  0  0  0  0  0  0  0  0
    2.7041   -1.7840    0.0000 N   0  0  0  0  0  0  0  0  0  0  0  0
    2.4492   -2.5687    0.0000 N   0  0  0  0  0  0  0  0  0  0  0  0
    1.6242   -2.5687    0.0000 C   0  0  0  0  0  0  0  0  0  0  0  0
    1.1393   -3.2361    0.0000 N   0  0  0  0  0  0  0  0  0  0  0  0
    0.3188   -3.1499    0.0000 C   0  0  0  0  0  0  0  0  0  0  0  0
   -0.1661   -3.8173    0.0000 C   0  0  0  0  0  0  0  0  0  0  0  0
   -0.9866   -3.7311    0.0000 C   0  0  0  0  0  0  0  0  0  0  0  0
   -1.3222   -2.9774    0.0000 C   0  0  0  0  0  0  0  0  0  0  0  0
   -2.1426   -2.8911    0.0000 O   0  0  0  0  0  0  0  0  0  0  0  0
   -2.6276   -3.5586    0.0000 C   0  0  0  0  0  0  0  0  0  0  0  0
   -3.1125   -4.2260    0.0000 F   0  0  0  0  0  0  0  0  0  0  0  0
   -3.2950   -3.0737    0.0000 F   0  0  0  0  0  0  0  0  0  0  0  0
   -1.9601   -4.0435    0.0000 F   0  0  0  0  0  0  0  0  0  0  0  0
   -0.8372   -2.3099    0.0000 C   0  0  0  0  0  0  0  0  0  0  0  0
   -0.0168   -2.3962    0.0000 C   0  0  0  0  0  0  0  0  0  0  0  0
    1.3693   -1.7840    0.0000 C   0  0  0  0  0  0  0  0  0  0  0  0
    0.5846   -1.5291    0.0000 C   0  0  0  0  0  0  0  0  0  0  0  0
   -0.2000   -1.2742    0.0000 N   0  0  0  0  0  0  0  0  0  0  0  0
  1  2  1  0  0  0  0
  2  3  4  0  0  0  0
  3  4  4  0  0  0  0
  4  5  4  0  0  0  0
  5  6  1  0  0  0  0
  6  7  1  0  0  0  0
  7  8  4  0  0  0  0
  8  9  4  0  0  0  0
  9 10  4  0  0  0  0
 10 11  1  0  0  0  0
 11 12  1  0  0  0  0
 12 13  1  0  0  0  0
 12 14  1  0  0  0  0
 12 15  1  0  0  0  0
 10 16  4  0  0  0  0
 16 17  4  0  0  0  0
  7 17  4  0  0  0  0
  5 18  4  0  0  0  0
  2 18  4  0  0  0  0
 18 19  1  0  0  0  0
 19 20  3  0  0  0  0
M  STY  1   1 DAT
M  SAL   1  1   4
M  SDT   1 MRV_IMPLICIT_H                                        
M  SDD   1     0.5304   -0.4125    DR    ALL  0       0  
M  SED   1 IMPL_H1
M  END
> <IC50(uM)>
0.5

> <Outcome>
1.0

> <BindingDB ID>
50786766

> <BindingDB MonomerID>
50066577

> <BindingDB Ligand Name>
5-Methyl-3-(4-trifluoromethoxy-phenylamino)-1H-pyrazole-4-carbonitrile::CHEMBL118395

> <Curation/DataSource>
ChEMBL

> <Article DOI>
10.1021/jm981028c

> <PMID>
9719606

> <Patent Number>
?

> <Authors>
Papageorgiou, C; Albert, R; Floersheim, P; Lemaire, M; Bitch, F; Weber, HP; Andersen, E; Hungerford, V; Schreier, MH

> <Link to Ligand in BindingDB>
http://www.bindingdb.org/bind/chemsearch/marvin/MolStructure.jsp?monomerid=50066577

> <Link to Ligand-Target Pair in BindingDB>
http://www.bindingdb.org/jsp/dbsearch/PrimarySearch_ki.jsp?energyterm=kJ/mole&tag=r21&monomerid=50066577&enzyme=Dihydroorotate+dehydrogenase&column=ki&startPg=0&Increment=50&submit=Search

> <PubChem CID>
10516983

> <PubChem SID>
103961197

$$$$

  Mrv2115 07222212352D          

 37 41  0  0  0  0            999 V2000
   -5.1659    1.4455    0.0000 C   0  0  0  0  0  0  0  0  0  0  0  0
   -5.5784    0.7310    0.0000 C   0  0  0  0  0  0  0  0  0  0  0  0
   -6.4034    0.7310    0.0000 C   0  0  0  0  0  0  0  0  0  0  0  0
   -6.8159    0.0165    0.0000 C   0  0  0  0  0  0  0  0  0  0  0  0
   -6.4034   -0.6979    0.0000 C   0  0  0  0  0  0  0  0  0  0  0  0
   -5.5784   -0.6979    0.0000 C   0  0  0  0  0  0  0  0  0  0  0  0
   -5.1659   -1.4124    0.0000 F   0  0  0  0  0  0  0  0  0  0  0  0
   -5.1659    0.0165    0.0000 C   0  0  0  0  0  0  0  0  0  0  0  0
   -4.3409    0.0165    0.0000 N   0  0  0  0  0  0  0  0  0  0  0  0
   -3.9284   -0.6979    0.0000 C   0  0  0  0  0  0  0  0  0  0  0  0
   -4.3409   -1.4124    0.0000 O   0  0  0  0  0  0  0  0  0  0  0  0
   -3.1034   -0.6979    0.0000 C   0  0  0  0  0  0  0  0  0  0  0  0
   -2.6909    0.0165    0.0000 C   0  0  0  0  0  0  0  0  0  0  0  0
   -1.8659    0.0165    0.0000 C   0  0  0  0  0  0  0  0  0  0  0  0
   -1.4534    0.7310    0.0000 F   0  0  0  0  0  0  0  0  0  0  0  0
   -1.4534   -0.6979    0.0000 C   0  0  0  0  0  0  0  0  0  0  0  0
   -0.6284   -0.6979    0.0000 N   0  0  0  0  0  0  0  0  0  0  0  0
   -0.1435   -1.3654    0.0000 N   0  0  0  0  0  0  0  0  0  0  0  0
    0.6411   -1.1104    0.0000 C   0  0  0  0  0  0  0  0  0  0  0  0
    0.6411   -0.2854    0.0000 N   0  0  0  0  0  0  0  0  0  0  0  0
   -0.1435   -0.0305    0.0000 C   0  0  0  0  0  0  0  0  0  0  0  0
   -0.3984    0.7541    0.0000 O   0  0  0  0  0  0  0  0  0  0  0  0
    1.3556    0.1271    0.0000 C   0  0  0  0  0  0  0  0  0  0  0  0
    2.0701   -0.2854    0.0000 C   0  0  0  0  0  0  0  0  0  0  0  0
    2.0701   -1.1104    0.0000 C   0  0  0  0  0  0  0  0  0  0  0  0
    1.3556   -1.5229    0.0000 C   0  0  0  0  0  0  0  0  0  0  0  0
   -1.8659   -1.4124    0.0000 C   0  0  0  0  0  0  0  0  0  0  0  0
   -2.6909   -1.4124    0.0000 C   0  0  0  0  0  0  0  0  0  0  0  0
   -3.1034   -2.1269    0.0000 O   0  0  0  0  0  0  0  0  0  0  0  0
   -2.6909   -2.8414    0.0000 C   0  0  0  0  0  0  0  0  0  0  0  0
   -3.1034   -3.5558    0.0000 C   0  0  0  0  0  0  0  0  0  0  0  0
   -1.8659   -2.8414    0.0000 C   0  0  0  0  0  0  0  0  0  0  0  0
   -1.4534   -3.5558    0.0000 N   0  0  0  0  0  0  0  0  0  0  0  0
   -0.6329   -3.6421    0.0000 C   0  0  0  0  0  0  0  0  0  0  0  0
   -0.4614   -4.4490    0.0000 C   0  0  0  0  0  0  0  0  0  0  0  0
   -1.1759   -4.8615    0.0000 C   0  0  0  0  0  0  0  0  0  0  0  0
   -1.7890   -4.3095    0.0000 C   0  0  0  0  0  0  0  0  0  0  0  0
  1  2  1  0  0  0  0
  2  3  4  0  0  0  0
  3  4  4  0  0  0  0
  4  5  4  0  0  0  0
  5  6  4  0  0  0  0
  6  7  1  0  0  0  0
  6  8  4  0  0  0  0
  2  8  4  0  0  0  0
  8  9  1  0  0  0  0
  9 10  1  0  0  0  0
 10 11  2  0  0  0  0
 10 12  1  0  0  0  0
 12 13  4  0  0  0  0
 13 14  4  0  0  0  0
 14 15  1  0  0  0  0
 14 16  4  0  0  0  0
 16 17  1  0  0  0  0
 17 18  4  0  0  0  0
 18 19  4  0  0  0  0
 19 20  4  0  0  0  0
 20 21  4  0  0  0  0
 17 21  4  0  0  0  0
 21 22  2  0  0  0  0
 20 23  1  0  0  0  0
 23 24  1  0  0  0  0
 24 25  1  0  0  0  0
 25 26  1  0  0  0  0
 19 26  1  0  0  0  0
 16 27  4  0  0  0  0
 27 28  4  0  0  0  0
 12 28  4  0  0  0  0
 28 29  1  0  0  0  0
 29 30  1  0  0  0  0
 30 31  1  0  0  0  0
 30 32  1  0  0  0  0
 32 33  1  0  0  0  0
 33 34  1  0  0  0  0
 34 35  1  0  0  0  0
 35 36  1  0  0  0  0
 36 37  1  0  0  0  0
 33 37  1  0  0  0  0
M  END
> <IC50(uM)>
0.018

> <Outcome>
1.0

> <BindingDB ID>
1020673

> <BindingDB MonomerID>
490599

> <BindingDB Ligand Name>
5-fluoro-N-(2-fluoro-6-methylphenyl)-4-(3-oxo-5,6,7,8-tetrahydro[1,2,4]triazolo[4,3-a]pyridin-2(3H)-yl)-2-{[(2S)-1-(pyrrolidin-1-yl)propan-2-yl]oxy}benzamide::US10968216, Example 267

> <Curation/DataSource>
US Patent

> <Article DOI>
?

> <PMID>
?

> <Patent Number>
US10968216

> <Authors>
Gradl, SN; Nguyen, D; Eis, K; Gunther, J; Stellfeld, T; Janzer, A; Christian, S; Mueller, T; Sheikh, SE; Zhou, HJ; Zhao, C; Sykes, DB; Ferrara, SJ; Liu, K; Herbert, SA; Merz, C; Niehues, M; Nising, CF; Schafer, M; Zimmermann, K; Knablein, J; Thede, K; Faupel, T

> <Link to Ligand in BindingDB>
http://www.bindingdb.org/bind/chemsearch/marvin/MolStructure.jsp?monomerid=490599

> <Link to Ligand-Target Pair in BindingDB>
http://www.bindingdb.org/jsp/dbsearch/PrimarySearch_ki.jsp?energyterm=kJ/mole&tag=r21&monomerid=490599&enzyme=Dihydroorotate+dehydrogenase&column=ki&startPg=0&Increment=50&submit=Search

> <PubChem CID>
134474070

> <PubChem SID>
447117325

$$$$

  Mrv2115 07222212352D          

 38 41  0  0  0  0            999 V2000
    1.4289   -4.9500    0.0000 C   0  0  0  0  0  0  0  0  0  0  0  0
    2.1434   -5.3625    0.0000 C   0  0  0  0  0  0  0  0  0  0  0  0
    2.1434   -6.1875    0.0000 C   0  0  0  0  0  0  0  0  0  0  0  0
    2.8109   -6.6724    0.0000 N   0  0  0  0  0  0  0  0  0  0  0  0
    2.5559   -7.4570    0.0000 N   0  0  0  0  0  0  0  0  0  0  0  0
    3.0408   -8.1245    0.0000 C   0  0  0  0  0  0  0  0  0  0  0  0
    3.8613   -8.0382    0.0000 C   0  0  0  0  0  0  0  0  0  0  0  0
    4.3462   -8.7057    0.0000 C   0  0  0  0  0  0  0  0  0  0  0  0
    5.1667   -8.6195    0.0000 O   0  0  0  0  0  0  0  0  0  0  0  0
    5.5023   -7.8658    0.0000 C   0  0  0  0  0  0  0  0  0  0  0  0
    5.0174   -7.1983    0.0000 C   0  0  0  0  0  0  0  0  0  0  0  0
    6.3228   -7.7795    0.0000 C   0  0  0  0  0  0  0  0  0  0  0  0
    6.6583   -7.0259    0.0000 C   0  0  0  0  0  0  0  0  0  0  0  0
    7.4788   -6.9396    0.0000 C   0  0  0  0  0  0  0  0  0  0  0  0
    7.9637   -7.6071    0.0000 C   0  0  0  0  0  0  0  0  0  0  0  0
    7.6282   -8.3607    0.0000 C   0  0  0  0  0  0  0  0  0  0  0  0
    6.8077   -8.4470    0.0000 C   0  0  0  0  0  0  0  0  0  0  0  0
    4.0107   -9.4594    0.0000 C   0  0  0  0  0  0  0  0  0  0  0  0
    4.4956  -10.1268    0.0000 C   0  0  0  0  0  0  0  0  0  0  0  0
    4.1600  -10.8805    0.0000 O   0  0  0  0  0  0  0  0  0  0  0  0
    5.3161  -10.0406    0.0000 N   0  0  0  0  0  0  0  0  0  0  0  0
    5.8010  -10.7080    0.0000 C   0  0  0  0  0  0  0  0  0  0  0  0
    5.4654  -11.4617    0.0000 C   0  0  0  0  0  0  0  0  0  0  0  0
    5.9504  -12.1291    0.0000 C   0  0  0  0  0  0  0  0  0  0  0  0
    6.6215  -10.6218    0.0000 C   0  0  0  0  0  0  0  0  0  0  0  0
    7.1064  -11.2892    0.0000 C   0  0  0  0  0  0  0  0  0  0  0  0
    7.9269  -11.2030    0.0000 C   0  0  0  0  0  0  0  0  0  0  0  0
    8.4118  -11.8704    0.0000 C   0  0  0  0  0  0  0  0  0  0  0  0
    8.0763  -12.6241    0.0000 C   0  0  0  0  0  0  0  0  0  0  0  0
    7.2558  -12.7103    0.0000 C   0  0  0  0  0  0  0  0  0  0  0  0
    6.7709  -12.0429    0.0000 C   0  0  0  0  0  0  0  0  0  0  0  0
    3.1902   -9.5456    0.0000 C   0  0  0  0  0  0  0  0  0  0  0  0
    2.7053   -8.8782    0.0000 C   0  0  0  0  0  0  0  0  0  0  0  0
    1.8848   -8.9644    0.0000 F   0  0  0  0  0  0  0  0  0  0  0  0
    1.7309   -7.4570    0.0000 C   0  0  0  0  0  0  0  0  0  0  0  0
    1.2460   -8.1245    0.0000 O   0  0  0  0  0  0  0  0  0  0  0  0
    1.4760   -6.6724    0.0000 N   0  0  0  0  0  0  0  0  0  0  0  0
    0.6914   -6.4175    0.0000 C   0  0  0  0  0  0  0  0  0  0  0  0
  1  2  1  0  0  0  0
  2  3  1  0  0  0  0
  3  4  4  0  0  0  0
  4  5  4  0  0  0  0
  5  6  1  0  0  0  0
  6  7  4  0  0  0  0
  7  8  4  0  0  0  0
  8  9  1  0  0  0  0
  9 10  1  0  0  0  0
 10 11  1  0  0  0  0
 10 12  1  0  0  0  0
 12 13  1  0  0  0  0
 13 14  1  0  0  0  0
 14 15  1  0  0  0  0
 15 16  1  0  0  0  0
 16 17  1  0  0  0  0
 12 17  1  0  0  0  0
  8 18  4  0  0  0  0
 18 19  1  0  0  0  0
 19 20  2  0  0  0  0
 19 21  1  0  0  0  0
 21 22  1  0  0  0  0
 22 23  1  0  0  0  0
 23 24  1  0  0  0  0
 22 25  1  0  0  0  0
 25 26  1  0  0  0  0
 26 27  4  0  0  0  0
 27 28  4  0  0  0  0
 28 29  4  0  0  0  0
 29 30  4  0  0  0  0
 30 31  4  0  0  0  0
 26 31  4  0  0  0  0
 18 32  4  0  0  0  0
 32 33  4  0  0  0  0
  6 33  4  0  0  0  0
 33 34  1  0  0  0  0
  5 35  4  0  0  0  0
 35 36  2  0  0  0  0
 35 37  4  0  0  0  0
  3 37  4  0  0  0  0
 37 38  1  0  0  0  0
M  END
> <IC50(uM)>
0.17

> <Outcome>
1.0

> <BindingDB ID>
1098814; 972660

> <BindingDB MonomerID>
470538

> <BindingDB Ligand Name>
2-[(1S)-1-cyclohexylethoxy]-4-(3-ethyl-4-methyl-5-oxo-4,5-dihydro-1H-1,2,4-triazol-1-yl)-5-fluoro-N-(1-phenylbutan-2-yl)benzamide::US10815215, Example 198::US11130745, Example 198; 2-[(1S)-1-cyclohexylethoxy]-4-(3-ethyl-4-methyl-5-oxo-4,5-dihydro-1H-1,2,4-triazol-1-yl)-5-fluoro-N-(1-phenylbutan-2-yl)benzamide::US10815215, Example 198

> <Curation/DataSource>
US Patent

> <Article DOI>
?

> <PMID>
?

> <Patent Number>
US11130745; US10815215

> <Authors>
Gradl, SN; Nguyen, D; Eis, K; Gunther, J; Stellfeld, T; Janzer, A; Christian, S; Muller, T; Sheikh, SE; Sykes, DB; Ferrara, SJ; Krober, M; Merz, C; Niehues, M; Schafer, M; Zimmermann, K; Nising, CF; Gradl, SN; Nguyen, D; Eis, K; Gunther, J; Stellfeld, T; Janzer, A; Christian, S; Muller, T; Sheikh, SE; Zhou, HJ; Zhao, C; Sykes, DB; Ferrara, SJ; Liu, K; Krober, M; Merz, C; Niehues, M; Schafer, M; Zimmermann, K; Nising, CF

> <Link to Ligand in BindingDB>
http://www.bindingdb.org/bind/chemsearch/marvin/MolStructure.jsp?monomerid=470538

> <Link to Ligand-Target Pair in BindingDB>
http://www.bindingdb.org/jsp/dbsearch/PrimarySearch_ki.jsp?energyterm=kJ/mole&tag=r21&monomerid=470538&enzyme=Dihydroorotate+dehydrogenase&column=ki&startPg=0&Increment=50&submit=Search

> <PubChem CID>
134469873

> <PubChem SID>
441609714

$$$$

  Mrv2115 07222212352D          

 37 39  0  0  0  0            999 V2000
    0.7145   -2.8875    0.0000 C   0  0  0  0  0  0  0  0  0  0  0  0
    0.7145   -3.7125    0.0000 C   0  0  0  0  0  0  0  0  0  0  0  0
    0.0000   -4.1250    0.0000 C   0  0  0  0  0  0  0  0  0  0  0  0
    0.0000   -4.9500    0.0000 N   0  0  0  0  0  0  0  0  0  0  0  0
   -0.6674   -5.4349    0.0000 C   0  0  0  0  0  0  0  0  0  0  0  0
   -1.4521   -5.1800    0.0000 C   0  0  0  0  0  0  0  0  0  0  0  0
   -1.6236   -4.3730    0.0000 O   0  0  0  0  0  0  0  0  0  0  0  0
   -0.4125   -6.2195    0.0000 N   0  0  0  0  0  0  0  0  0  0  0  0
    0.4125   -6.2195    0.0000 N   0  0  0  0  0  0  0  0  0  0  0  0
    0.8974   -6.8870    0.0000 C   0  0  0  0  0  0  0  0  0  0  0  0
    1.7179   -6.8007    0.0000 C   0  0  0  0  0  0  0  0  0  0  0  0
    2.2028   -7.4682    0.0000 C   0  0  0  0  0  0  0  0  0  0  0  0
    3.0233   -7.3820    0.0000 O   0  0  0  0  0  0  0  0  0  0  0  0
    3.3589   -6.6283    0.0000 C   0  0  0  0  0  0  0  0  0  0  0  0
    2.8739   -5.9608    0.0000 C   0  0  0  0  0  0  0  0  0  0  0  0
    4.1793   -6.5420    0.0000 C   0  0  0  0  0  0  0  0  0  0  0  0
    4.2656   -7.3625    0.0000 F   0  0  0  0  0  0  0  0  0  0  0  0
    4.0931   -5.7216    0.0000 F   0  0  0  0  0  0  0  0  0  0  0  0
    4.9998   -6.4558    0.0000 F   0  0  0  0  0  0  0  0  0  0  0  0
    1.8673   -8.2219    0.0000 C   0  0  0  0  0  0  0  0  0  0  0  0
    2.3522   -8.8893    0.0000 C   0  0  0  0  0  0  0  0  0  0  0  0
    3.1727   -8.8031    0.0000 O   0  0  0  0  0  0  0  0  0  0  0  0
    2.0166   -9.6430    0.0000 N   0  0  0  0  0  0  0  0  0  0  0  0
    2.5016  -10.3104    0.0000 C   0  0  0  0  0  0  0  0  0  0  0  0
    3.3220  -10.2242    0.0000 C   0  0  0  0  0  0  0  0  0  0  0  0
    3.6576   -9.4705    0.0000 C   0  0  0  0  0  0  0  0  0  0  0  0
    3.8070  -10.8916    0.0000 C   0  0  0  0  0  0  0  0  0  0  0  0
    3.4714  -11.6453    0.0000 C   0  0  0  0  0  0  0  0  0  0  0  0
    2.6509  -11.7315    0.0000 N   0  0  0  0  0  0  0  0  0  0  0  0
    2.1660  -11.0641    0.0000 C   0  0  0  0  0  0  0  0  0  0  0  0
    1.3455  -11.1503    0.0000 O   0  0  0  0  0  0  0  0  0  0  0  0
    0.8606  -10.4829    0.0000 C   0  0  0  0  0  0  0  0  0  0  0  0
    1.0468   -8.3081    0.0000 C   0  0  0  0  0  0  0  0  0  0  0  0
    0.5619   -7.6407    0.0000 C   0  0  0  0  0  0  0  0  0  0  0  0
   -0.2586   -7.7269    0.0000 F   0  0  0  0  0  0  0  0  0  0  0  0
    0.6674   -5.4349    0.0000 C   0  0  0  0  0  0  0  0  0  0  0  0
    1.4521   -5.1800    0.0000 O   0  0  0  0  0  0  0  0  0  0  0  0
  1  2  1  0  0  0  0
  2  3  1  0  0  0  0
  3  4  1  0  0  0  0
  4  5  4  0  0  0  0
  5  6  1  0  0  0  0
  6  7  1  0  0  0  0
  5  8  4  0  0  0  0
  8  9  4  0  0  0  0
  9 10  1  0  0  0  0
 10 11  4  0  0  0  0
 11 12  4  0  0  0  0
 12 13  1  0  0  0  0
 13 14  1  0  0  0  0
 14 15  1  0  0  0  0
 14 16  1  0  0  0  0
 16 17  1  0  0  0  0
 16 18  1  0  0  0  0
 16 19  1  0  0  0  0
 12 20  4  0  0  0  0
 20 21  1  0  0  0  0
 21 22  2  0  0  0  0
 21 23  1  0  0  0  0
 23 24  1  0  0  0  0
 24 25  4  0  0  0  0
 25 26  1  0  0  0  0
 25 27  4  0  0  0  0
 27 28  4  0  0  0  0
 28 29  4  0  0  0  0
 29 30  4  0  0  0  0
 24 30  4  0  0  0  0
 30 31  1  0  0  0  0
 31 32  1  0  0  0  0
 20 33  4  0  0  0  0
 33 34  4  0  0  0  0
 10 34  4  0  0  0  0
 34 35  1  0  0  0  0
  9 36  4  0  0  0  0
  4 36  4  0  0  0  0
 36 37  2  0  0  0  0
M  END
> <IC50(uM)>
0.12

> <Outcome>
1.0

> <BindingDB ID>
972648

> <BindingDB MonomerID>
470526

> <BindingDB Ligand Name>
5-fluoro-4-[3-(hydroxymethyl)-5-oxo-4-propyl-4,5-dihydro-1H-1,2,4-triazol-1-yl]-N-(2-methoxy-4-methylpyridin-3-yl)-2-{[(2S)-1,1,1-trifluoropropan-2-yl]oxy}benzamide::US10815215, Example 186

> <Curation/DataSource>
US Patent

> <Article DOI>
?

> <PMID>
?

> <Patent Number>
US10815215

> <Authors>
Gradl, SN; Nguyen, D; Eis, K; Gunther, J; Stellfeld, T; Janzer, A; Christian, S; Muller, T; Sheikh, SE; Zhou, HJ; Zhao, C; Sykes, DB; Ferrara, SJ; Liu, K; Krober, M; Merz, C; Niehues, M; Schafer, M; Zimmermann, K; Nising, CF

> <Link to Ligand in BindingDB>
http://www.bindingdb.org/bind/chemsearch/marvin/MolStructure.jsp?monomerid=470526

> <Link to Ligand-Target Pair in BindingDB>
http://www.bindingdb.org/jsp/dbsearch/PrimarySearch_ki.jsp?energyterm=kJ/mole&tag=r21&monomerid=470526&enzyme=Dihydroorotate+dehydrogenase&column=ki&startPg=0&Increment=50&submit=Search

> <PubChem CID>
134470040

> <PubChem SID>
441609702

$$$$

  Mrv2115 07222212352D          

 28 31  0  0  0  0            999 V2000
   -2.1434   -2.8875    0.0000 Cl  0  0  0  0  0  0  0  0  0  0  0  0
   -1.4289   -2.4750    0.0000 C   0  0  0  0  0  0  0  0  0  0  0  0
   -1.4289   -1.6500    0.0000 C   0  0  0  0  0  0  0  0  0  0  0  0
   -0.7145   -1.2375    0.0000 C   0  0  0  0  0  0  0  0  0  0  0  0
    0.0000   -1.6500    0.0000 C   0  0  0  0  0  0  0  0  0  0  0  0
    0.7145   -1.2375    0.0000 C   0  0  0  0  0  0  0  0  0  0  0  0
    0.7145   -0.4125    0.0000 C   0  0  0  0  0  0  0  0  0  0  0  0
    1.4289    0.0000    0.0000 C   0  0  0  0  0  0  0  0  0  0  0  0
    1.4289    0.8250    0.0000 C   0  0  0  0  0  0  0  0  0  0  0  0
    2.1434    1.2375    0.0000 O   0  0  0  0  0  0  0  0  0  0  0  0
    2.1434    2.0625    0.0000 C   0  0  0  0  0  0  0  0  0  0  0  0
    2.8579    2.4750    0.0000 C   0  0  0  0  0  0  0  0  0  0  0  0
    2.8579    3.3000    0.0000 C   0  0  0  0  0  0  0  0  0  0  0  0
    3.5724    3.7125    0.0000 C   0  0  0  0  0  0  0  0  0  0  0  0
    4.2868    3.3000    0.0000 C   0  0  0  0  0  0  0  0  0  0  0  0
    4.2868    2.4750    0.0000 C   0  0  0  0  0  0  0  0  0  0  0  0
    3.5724    2.0625    0.0000 C   0  0  0  0  0  0  0  0  0  0  0  0
    2.1434   -0.4125    0.0000 C   0  0  0  0  0  0  0  0  0  0  0  0
    2.8579    0.0000    0.0000 C   0  0  0  0  0  0  0  0  0  0  0  0
    3.5724   -0.4125    0.0000 C   0  0  0  0  0  0  0  0  0  0  0  0
    4.2868   -0.0000    0.0000 Cl  0  0  0  0  0  0  0  0  0  0  0  0
    3.5724   -1.2375    0.0000 C   0  0  0  0  0  0  0  0  0  0  0  0
    4.2868   -1.6500    0.0000 Cl  0  0  0  0  0  0  0  0  0  0  0  0
    2.8579   -1.6500    0.0000 C   0  0  0  0  0  0  0  0  0  0  0  0
    2.1434   -1.2375    0.0000 C   0  0  0  0  0  0  0  0  0  0  0  0
    1.4289   -1.6500    0.0000 N   0  0  0  0  0  0  0  0  0  0  0  0
    0.0000   -2.4750    0.0000 C   0  0  0  0  0  0  0  0  0  0  0  0
   -0.7145   -2.8875    0.0000 C   0  0  0  0  0  0  0  0  0  0  0  0
  1  2  1  0  0  0  0
  2  3  4  0  0  0  0
  3  4  4  0  0  0  0
  4  5  4  0  0  0  0
  5  6  1  0  0  0  0
  6  7  4  0  0  0  0
  7  8  4  0  0  0  0
  8  9  1  0  0  0  0
  9 10  1  0  0  0  0
 10 11  1  0  0  0  0
 11 12  1  0  0  0  0
 12 13  4  0  0  0  0
 13 14  4  0  0  0  0
 14 15  4  0  0  0  0
 15 16  4  0  0  0  0
 16 17  4  0  0  0  0
 12 17  4  0  0  0  0
  8 18  4  0  0  0  0
 18 19  4  0  0  0  0
 19 20  4  0  0  0  0
 20 21  1  0  0  0  0
 20 22  4  0  0  0  0
 22 23  1  0  0  0  0
 22 24  4  0  0  0  0
 24 25  4  0  0  0  0
 18 25  4  0  0  0  0
 25 26  4  0  0  0  0
  6 26  4  0  0  0  0
  5 27  4  0  0  0  0
 27 28  4  0  0  0  0
  2 28  4  0  0  0  0
M  END
> <IC50(uM)>
1.22

> <Outcome>
0.0

> <BindingDB ID>
51311347

> <BindingDB MonomerID>
50532171

> <BindingDB Ligand Name>
CHEMBL4543612

> <Curation/DataSource>
ChEMBL

> <Article DOI>
10.1016/j.bmcl.2019.01.038

> <PMID>
30738663

> <Patent Number>
?

> <Authors>
Vyas, VK; Qureshi, G; Oza, D; Patel, H; Parmar, K; Patel, P; Ghate, MD

> <Link to Ligand in BindingDB>
http://www.bindingdb.org/bind/chemsearch/marvin/MolStructure.jsp?monomerid=50532171

> <Link to Ligand-Target Pair in BindingDB>
http://www.bindingdb.org/jsp/dbsearch/PrimarySearch_ki.jsp?energyterm=kJ/mole&tag=r21&monomerid=50532171&enzyme=Dihydroorotate+dehydrogenase&column=ki&startPg=0&Increment=50&submit=Search

> <PubChem CID>
155543412

> <PubChem SID>
440740753

$$$$

  Mrv2115 07222212352D          

 30 33  0  0  0  0            999 V2000
    3.9934    2.4750    0.0000 O   0  0  0  0  0  0  0  0  0  0  0  0
    3.2789    2.0625    0.0000 C   0  0  0  0  0  0  0  0  0  0  0  0
    2.5645    2.4750    0.0000 O   0  0  0  0  0  0  0  0  0  0  0  0
    3.2789    1.2375    0.0000 C   0  0  0  0  0  0  0  0  0  0  0  0
    3.9934    0.8250    0.0000 C   0  0  0  0  0  0  0  0  0  0  0  0
    3.9934    0.0000    0.0000 C   0  0  0  0  0  0  0  0  0  0  0  0
    3.2789   -0.4125    0.0000 C   0  0  0  0  0  0  0  0  0  0  0  0
    2.5645    0.0000    0.0000 C   0  0  0  0  0  0  0  0  0  0  0  0
    1.7798   -0.2549    0.0000 N   0  0  0  0  0  0  0  0  0  0  0  0
    1.2949    0.4125    0.0000 C   0  0  0  0  0  0  0  0  0  0  0  0
    0.4699    0.4125    0.0000 C   0  0  0  0  0  0  0  0  0  0  0  0
    0.0574   -0.3020    0.0000 C   0  0  0  0  0  0  0  0  0  0  0  0
    0.4699   -1.0164    0.0000 F   0  0  0  0  0  0  0  0  0  0  0  0
   -0.7676   -0.3020    0.0000 C   0  0  0  0  0  0  0  0  0  0  0  0
   -1.1801   -1.0164    0.0000 F   0  0  0  0  0  0  0  0  0  0  0  0
   -1.1801    0.4125    0.0000 C   0  0  0  0  0  0  0  0  0  0  0  0
   -2.0051    0.4125    0.0000 C   0  0  0  0  0  0  0  0  0  0  0  0
   -2.4176   -0.3020    0.0000 C   0  0  0  0  0  0  0  0  0  0  0  0
   -3.2426   -0.3020    0.0000 C   0  0  0  0  0  0  0  0  0  0  0  0
   -3.6551   -1.0164    0.0000 F   0  0  0  0  0  0  0  0  0  0  0  0
   -3.6551    0.4125    0.0000 C   0  0  0  0  0  0  0  0  0  0  0  0
   -3.2426    1.1270    0.0000 C   0  0  0  0  0  0  0  0  0  0  0  0
   -3.6551    1.8414    0.0000 F   0  0  0  0  0  0  0  0  0  0  0  0
   -2.4176    1.1270    0.0000 C   0  0  0  0  0  0  0  0  0  0  0  0
   -0.7676    1.1270    0.0000 C   0  0  0  0  0  0  0  0  0  0  0  0
   -1.1801    1.8414    0.0000 F   0  0  0  0  0  0  0  0  0  0  0  0
    0.0574    1.1270    0.0000 C   0  0  0  0  0  0  0  0  0  0  0  0
    0.4699    1.8414    0.0000 F   0  0  0  0  0  0  0  0  0  0  0  0
    1.7798    1.0799    0.0000 N   0  0  0  0  0  0  0  0  0  0  0  0
    2.5645    0.8250    0.0000 C   0  0  0  0  0  0  0  0  0  0  0  0
  1  2  2  0  0  0  0
  2  3  1  0  0  0  0
  2  4  1  0  0  0  0
  4  5  4  0  0  0  0
  5  6  4  0  0  0  0
  6  7  4  0  0  0  0
  7  8  4  0  0  0  0
  8  9  4  0  0  0  0
  9 10  4  0  0  0  0
 10 11  1  0  0  0  0
 11 12  4  0  0  0  0
 12 13  1  0  0  0  0
 12 14  4  0  0  0  0
 14 15  1  0  0  0  0
 14 16  4  0  0  0  0
 16 17  1  0  0  0  0
 17 18  4  0  0  0  0
 18 19  4  0  0  0  0
 19 20  1  0  0  0  0
 19 21  4  0  0  0  0
 21 22  4  0  0  0  0
 22 23  1  0  0  0  0
 22 24  4  0  0  0  0
 17 24  4  0  0  0  0
 16 25  4  0  0  0  0
 25 26  1  0  0  0  0
 25 27  4  0  0  0  0
 11 27  4  0  0  0  0
 27 28  1  0  0  0  0
 10 29  4  0  0  0  0
 29 30  4  0  0  0  0
  4 30  4  0  0  0  0
  8 30  4  0  0  0  0
M  STY  1   1 DAT
M  SAL   1  1   9
M  SDT   1 MRV_IMPLICIT_H                                        
M  SDD   1     0.5304   -0.4125    DR    ALL  0       0  
M  SED   1 IMPL_H1
M  END
> <IC50(uM)>
0.02

> <Outcome>
1.0

> <BindingDB ID>
297831

> <BindingDB MonomerID>
155487

> <BindingDB Ligand Name>
US9006454, I129

> <Curation/DataSource>
US Patent

> <Article DOI>
?

> <PMID>
?

> <Patent Number>
US9006454

> <Authors>
Thunuguntla, SS; Subramanya, H; Kunnam, SR; Sanivaru Vijay, SR; Bingi, C; Kusanur, R; Schwarz, M; Arlt, M

> <Link to Ligand in BindingDB>
http://www.bindingdb.org/bind/chemsearch/marvin/MolStructure.jsp?monomerid=155487

> <Link to Ligand-Target Pair in BindingDB>
http://www.bindingdb.org/jsp/dbsearch/PrimarySearch_ki.jsp?energyterm=kJ/mole&tag=r21&monomerid=155487&enzyme=Dihydroorotate+dehydrogenase&column=ki&startPg=0&Increment=50&submit=Search

> <PubChem CID>
58073881

> <PubChem SID>
253658424

$$$$

  Mrv2115 07222212352D          

 23 24  0  0  0  0            999 V2000
    0.0000   -4.9500    0.0000 C   0  0  0  0  0  0  0  0  0  0  0  0
    0.7145   -5.3625    0.0000 C   0  0  0  0  0  0  0  0  0  0  0  0
    0.7145   -6.1875    0.0000 O   0  0  0  0  0  0  0  0  0  0  0  0
    1.4289   -4.9500    0.0000 C   0  0  0  0  0  0  0  0  0  0  0  0
    1.4289   -4.1250    0.0000 C   0  0  0  0  0  0  0  0  0  0  0  0
    1.4289   -3.3000    0.0000 N   0  0  0  0  0  0  0  0  0  0  0  0
    2.1434   -5.3625    0.0000 C   0  0  0  0  0  0  0  0  0  0  0  0
    2.1434   -6.1875    0.0000 O   0  0  0  0  0  0  0  0  0  0  0  0
    2.8579   -4.9500    0.0000 N   0  0  0  0  0  0  0  0  0  0  0  0
    3.5724   -5.3625    0.0000 C   0  0  0  0  0  0  0  0  0  0  0  0
    4.2868   -4.9500    0.0000 C   0  0  0  0  0  0  0  0  0  0  0  0
    5.0013   -5.3625    0.0000 C   0  0  0  0  0  0  0  0  0  0  0  0
    5.0013   -6.1875    0.0000 C   0  0  0  0  0  0  0  0  0  0  0  0
    5.7158   -6.6000    0.0000 C   0  0  0  0  0  0  0  0  0  0  0  0
    6.4302   -6.1875    0.0000 C   0  0  0  0  0  0  0  0  0  0  0  0
    7.1447   -6.6000    0.0000 C   0  0  0  0  0  0  0  0  0  0  0  0
    7.1447   -7.4250    0.0000 C   0  0  0  0  0  0  0  0  0  0  0  0
    6.4302   -7.8375    0.0000 C   0  0  0  0  0  0  0  0  0  0  0  0
    6.4302   -8.6625    0.0000 Cl  0  0  0  0  0  0  0  0  0  0  0  0
    5.7158   -7.4250    0.0000 C   0  0  0  0  0  0  0  0  0  0  0  0
    4.2868   -6.6000    0.0000 C   0  0  0  0  0  0  0  0  0  0  0  0
    3.5724   -6.1875    0.0000 C   0  0  0  0  0  0  0  0  0  0  0  0
    2.8579   -6.6000    0.0000 Cl  0  0  0  0  0  0  0  0  0  0  0  0
  1  2  1  0  0  0  0
  2  3  2  0  0  0  0
  2  4  1  0  0  0  0
  4  5  1  0  0  0  0
  5  6  3  0  0  0  0
  4  7  1  0  0  0  0
  7  8  2  0  0  0  0
  7  9  1  0  0  0  0
  9 10  1  0  0  0  0
 10 11  4  0  0  0  0
 11 12  4  0  0  0  0
 12 13  4  0  0  0  0
 13 14  1  0  0  0  0
 14 15  4  0  0  0  0
 15 16  4  0  0  0  0
 16 17  4  0  0  0  0
 17 18  4  0  0  0  0
 18 19  1  0  0  0  0
 18 20  4  0  0  0  0
 14 20  4  0  0  0  0
 13 21  4  0  0  0  0
 21 22  4  0  0  0  0
 10 22  4  0  0  0  0
 22 23  1  0  0  0  0
M  END
> <IC50(uM)>
1.52

> <Outcome>
0.0

> <BindingDB ID>
52792

> <BindingDB MonomerID>
29032

> <BindingDB Ligand Name>
cyanohydroxybutenamide, 22

> <Curation/DataSource>
Curated from the literature by BindingDB

> <Article DOI>
10.1021/jm800963t

> <PMID>
19351152

> <Patent Number>
?

> <Authors>
Davies, M; Heikkil&auml;, T; McConkey, GA; Fishwick, CW; Parsons, MR; Johnson, AP

> <Link to Ligand in BindingDB>
http://www.bindingdb.org/bind/chemsearch/marvin/MolStructure.jsp?monomerid=29032

> <Link to Ligand-Target Pair in BindingDB>
http://www.bindingdb.org/jsp/dbsearch/PrimarySearch_ki.jsp?energyterm=kJ/mole&tag=r21&monomerid=29032&enzyme=Dihydroorotate+dehydrogenase&column=ki&startPg=0&Increment=50&submit=Search

> <PubChem CID>
91896058

> <PubChem SID>
81054461

$$$$

  Mrv2115 07222212352D          

 26 28  0  0  0  0            999 V2000
   -0.0000    9.6536    0.0000 C   0  0  0  0  0  0  0  0  0  0  0  0
    0.7145    9.2411    0.0000 O   0  0  0  0  0  0  0  0  0  0  0  0
    1.4289    9.6536    0.0000 C   0  0  0  0  0  0  0  0  0  0  0  0
    1.4289   10.4786    0.0000 C   0  0  0  0  0  0  0  0  0  0  0  0
    2.1434   10.8911    0.0000 C   0  0  0  0  0  0  0  0  0  0  0  0
    2.8579   10.4786    0.0000 C   0  0  0  0  0  0  0  0  0  0  0  0
    2.8579    9.6536    0.0000 C   0  0  0  0  0  0  0  0  0  0  0  0
    2.1434    9.2411    0.0000 C   0  0  0  0  0  0  0  0  0  0  0  0
    2.1434    8.4161    0.0000 C   0  0  0  0  0  0  0  0  0  0  0  0
    2.8579    8.0036    0.0000 C   0  0  0  0  0  0  0  0  0  0  0  0
    2.8579    7.1786    0.0000 C   0  0  0  0  0  0  0  0  0  0  0  0
    2.1434    6.7661    0.0000 C   0  0  0  0  0  0  0  0  0  0  0  0
    2.1434    5.9411    0.0000 N   0  0  0  0  0  0  0  0  0  0  0  0
    1.4289    5.5286    0.0000 C   0  0  0  0  0  0  0  0  0  0  0  0
    0.7145    5.9411    0.0000 O   0  0  0  0  0  0  0  0  0  0  0  0
    1.4289    4.7036    0.0000 C   0  0  0  0  0  0  0  0  0  0  0  0
    2.0964    4.2187    0.0000 C   0  0  0  0  0  0  0  0  0  0  0  0
    1.8414    3.4340    0.0000 C   0  0  0  0  0  0  0  0  0  0  0  0
    1.0164    3.4340    0.0000 S   0  0  0  0  0  0  0  0  0  0  0  0
    0.7615    4.2187    0.0000 C   0  0  0  0  0  0  0  0  0  0  0  0
   -0.0231    4.4736    0.0000 C   0  0  0  0  0  0  0  0  0  0  0  0
   -0.6362    3.9216    0.0000 O   0  0  0  0  0  0  0  0  0  0  0  0
   -0.1946    5.2806    0.0000 O   0  0  0  0  0  0  0  0  0  0  0  0
    1.4289    7.1786    0.0000 C   0  0  0  0  0  0  0  0  0  0  0  0
    1.4289    8.0036    0.0000 C   0  0  0  0  0  0  0  0  0  0  0  0
    0.7145    8.4161    0.0000 Cl  0  0  0  0  0  0  0  0  0  0  0  0
  1  2  1  0  0  0  0
  2  3  1  0  0  0  0
  3  4  4  0  0  0  0
  4  5  4  0  0  0  0
  5  6  4  0  0  0  0
  6  7  4  0  0  0  0
  7  8  4  0  0  0  0
  3  8  4  0  0  0  0
  8  9  1  0  0  0  0
  9 10  4  0  0  0  0
 10 11  4  0  0  0  0
 11 12  4  0  0  0  0
 12 13  1  0  0  0  0
 13 14  1  0  0  0  0
 14 15  2  0  0  0  0
 14 16  1  0  0  0  0
 16 17  4  0  0  0  0
 17 18  4  0  0  0  0
 18 19  4  0  0  0  0
 19 20  4  0  0  0  0
 16 20  4  0  0  0  0
 20 21  1  0  0  0  0
 21 22  2  0  0  0  0
 21 23  1  0  0  0  0
 12 24  4  0  0  0  0
 24 25  4  0  0  0  0
  9 25  4  0  0  0  0
 25 26  1  0  0  0  0
M  END
> <IC50(uM)>
0.012

> <Outcome>
1.0

> <BindingDB ID>
29221

> <BindingDB MonomerID>
16118

> <BindingDB Ligand Name>
3-{[3-chloro-4-(2-methoxyphenyl)phenyl]carbamoyl}thiophene-2-carboxylic acid::Biphenyl-4-ylcarbamoyl Thiophene Analog 9

> <Curation/DataSource>
Curated from the literature by BindingDB

> <Article DOI>
10.1016/j.bmcl.2005.10.011

> <PMID>
16246558

> <Patent Number>
?

> <Authors>
Leban, J; Kralik, M; Mies, J; Baumgartner, R; Gassen, M; Tasler, S

> <Link to Ligand in BindingDB>
http://www.bindingdb.org/bind/chemsearch/marvin/MolStructure.jsp?monomerid=16118

> <Link to Ligand-Target Pair in BindingDB>
http://www.bindingdb.org/jsp/dbsearch/PrimarySearch_ki.jsp?energyterm=kJ/mole&tag=r21&monomerid=16118&enzyme=Dihydroorotate+Dehydrogenase+%28DHODH%29&column=ki&startPg=0&Increment=50&submit=Search

> <PubChem CID>
23647301

> <PubChem SID>
46516377

$$$$

  Mrv2115 07222212352D          

 20 22  0  0  0  0            999 V2000
   -3.8837   -1.4124    0.0000 C   0  0  0  0  0  0  0  0  0  0  0  0
   -3.0587   -1.4124    0.0000 C   0  0  0  0  0  0  0  0  0  0  0  0
   -2.6462   -0.6979    0.0000 C   0  0  0  0  0  0  0  0  0  0  0  0
   -1.8212   -0.6979    0.0000 C   0  0  0  0  0  0  0  0  0  0  0  0
   -1.4087   -1.4124    0.0000 C   0  0  0  0  0  0  0  0  0  0  0  0
   -0.5837   -1.4124    0.0000 C   0  0  0  0  0  0  0  0  0  0  0  0
   -0.1712   -0.6979    0.0000 S   0  0  0  0  0  0  0  0  0  0  0  0
    0.6538   -0.6979    0.0000 C   0  0  0  0  0  0  0  0  0  0  0  0
    1.1387   -0.0305    0.0000 N   0  0  0  0  0  0  0  0  0  0  0  0
    1.9233   -0.2854    0.0000 C   0  0  0  0  0  0  0  0  0  0  0  0
    2.6378    0.1271    0.0000 N   0  0  0  0  0  0  0  0  0  0  0  0
    3.3523   -0.2854    0.0000 C   0  0  0  0  0  0  0  0  0  0  0  0
    4.0668    0.1271    0.0000 C   0  0  0  0  0  0  0  0  0  0  0  0
    3.3523   -1.1104    0.0000 C   0  0  0  0  0  0  0  0  0  0  0  0
    2.6378   -1.5229    0.0000 C   0  0  0  0  0  0  0  0  0  0  0  0
    2.6378   -2.3479    0.0000 O   0  0  0  0  0  0  0  0  0  0  0  0
    1.9233   -1.1104    0.0000 N   0  0  0  0  0  0  0  0  0  0  0  0
    1.1387   -1.3654    0.0000 N   0  0  0  0  0  0  0  0  0  0  0  0
   -1.8212   -2.1269    0.0000 C   0  0  0  0  0  0  0  0  0  0  0  0
   -2.6462   -2.1269    0.0000 C   0  0  0  0  0  0  0  0  0  0  0  0
  1  2  1  0  0  0  0
  2  3  4  0  0  0  0
  3  4  4  0  0  0  0
  4  5  4  0  0  0  0
  5  6  1  0  0  0  0
  6  7  1  0  0  0  0
  7  8  1  0  0  0  0
  8  9  4  0  0  0  0
  9 10  4  0  0  0  0
 10 11  4  0  0  0  0
 11 12  4  0  0  0  0
 12 13  1  0  0  0  0
 12 14  4  0  0  0  0
 14 15  4  0  0  0  0
 15 16  2  0  0  0  0
 15 17  4  0  0  0  0
 10 17  4  0  0  0  0
 17 18  4  0  0  0  0
  8 18  4  0  0  0  0
  5 19  4  0  0  0  0
 19 20  4  0  0  0  0
  2 20  4  0  0  0  0
M  STY  1   1 DAT
M  SAL   1  1  18
M  SDT   1 MRV_IMPLICIT_H                                        
M  SDD   1     0.5304   -0.4125    DR    ALL  0       0  
M  SED   1 IMPL_H1
M  END
> <IC50(uM)>
46.0

> <Outcome>
0.0

> <BindingDB ID>
50970253

> <BindingDB MonomerID>
50397826

> <BindingDB Ligand Name>
CHEMBL2178514

> <Curation/DataSource>
ChEMBL

> <Article DOI>
10.1021/jm300157n

> <PMID>
22621375

> <Patent Number>
?

> <Authors>
Bedingfield, PT; Cowen, D; Acklam, P; Cunningham, F; Parsons, MR; McConkey, GA; Fishwick, CW; Johnson, AP

> <Link to Ligand in BindingDB>
http://www.bindingdb.org/bind/chemsearch/marvin/MolStructure.jsp?monomerid=50397826

> <Link to Ligand-Target Pair in BindingDB>
http://www.bindingdb.org/jsp/dbsearch/PrimarySearch_ki.jsp?energyterm=kJ/mole&tag=r21&monomerid=50397826&enzyme=Dihydroorotate+dehydrogenase&column=ki&startPg=0&Increment=50&submit=Search

> <PubChem CID>
16457485

> <PubChem SID>
163346850

$$$$

  Mrv2115 07222212352D          

 24 26  0  0  0  0            999 V2000
    2.1434   -2.8875    0.0000 C   0  0  0  0  0  0  0  0  0  0  0  0
    2.1434   -3.7125    0.0000 C   0  0  0  0  0  0  0  0  0  0  0  0
    1.4289   -4.1250    0.0000 C   0  0  0  0  0  0  0  0  0  0  0  0
    1.4289   -4.9500    0.0000 C   0  0  0  0  0  0  0  0  0  0  0  0
    2.1434   -5.3625    0.0000 C   0  0  0  0  0  0  0  0  0  0  0  0
    2.1434   -6.1875    0.0000 N   0  0  0  0  0  0  0  0  0  0  0  0
    1.4289   -6.6000    0.0000 C   0  0  0  0  0  0  0  0  0  0  0  0
    1.4289   -7.4250    0.0000 C   0  0  0  0  0  0  0  0  0  0  0  0
    0.7145   -7.8375    0.0000 N   0  0  0  0  0  0  0  0  0  0  0  0
    0.0000   -7.4250    0.0000 C   0  0  0  0  0  0  0  0  0  0  0  0
   -0.7145   -7.8375    0.0000 C   0  0  0  0  0  0  0  0  0  0  0  0
   -0.7145   -8.6625    0.0000 C   0  0  0  0  0  0  0  0  0  0  0  0
   -1.4289   -9.0750    0.0000 C   0  0  0  0  0  0  0  0  0  0  0  0
   -2.1434   -8.6625    0.0000 C   0  0  0  0  0  0  0  0  0  0  0  0
   -2.1434   -7.8375    0.0000 C   0  0  0  0  0  0  0  0  0  0  0  0
   -1.4289   -7.4250    0.0000 C   0  0  0  0  0  0  0  0  0  0  0  0
    0.0000   -6.6000    0.0000 C   0  0  0  0  0  0  0  0  0  0  0  0
   -0.7145   -6.1875    0.0000 C   0  0  0  0  0  0  0  0  0  0  0  0
    0.7145   -6.1875    0.0000 C   0  0  0  0  0  0  0  0  0  0  0  0
    2.8579   -4.9500    0.0000 C   0  0  0  0  0  0  0  0  0  0  0  0
    3.5724   -5.3625    0.0000 C   0  0  0  0  0  0  0  0  0  0  0  0
    4.2868   -4.9500    0.0000 O   0  0  0  0  0  0  0  0  0  0  0  0
    3.5724   -6.1875    0.0000 O   0  0  0  0  0  0  0  0  0  0  0  0
    2.8579   -4.1250    0.0000 C   0  0  0  0  0  0  0  0  0  0  0  0
  1  2  1  0  0  0  0
  2  3  4  0  0  0  0
  3  4  4  0  0  0  0
  4  5  4  0  0  0  0
  5  6  1  0  0  0  0
  6  7  1  0  0  0  0
  7  8  4  0  0  0  0
  8  9  4  0  0  0  0
  9 10  4  0  0  0  0
 10 11  1  0  0  0  0
 11 12  4  0  0  0  0
 12 13  4  0  0  0  0
 13 14  4  0  0  0  0
 14 15  4  0  0  0  0
 15 16  4  0  0  0  0
 11 16  4  0  0  0  0
 10 17  4  0  0  0  0
 17 18  1  0  0  0  0
 17 19  4  0  0  0  0
  7 19  4  0  0  0  0
  5 20  4  0  0  0  0
 20 21  1  0  0  0  0
 21 22  2  0  0  0  0
 21 23  1  0  0  0  0
 20 24  4  0  0  0  0
  2 24  4  0  0  0  0
M  END
> <IC50(uM)>
0.053

> <Outcome>
1.0

> <BindingDB ID>
219997

> <BindingDB MonomerID>
102467

> <BindingDB Ligand Name>
US8536165, 58

> <Curation/DataSource>
US Patent

> <Article DOI>
?

> <PMID>
?

> <Patent Number>
US8536165

> <Authors>
Castro Palomino Laria, JC; Terricabras Belart, E; Erra Sola, M; Navarro Romero, E; Fonquerna Pou, S; Cardus Figueras, A; Lozoya Toribio, ME

> <Link to Ligand in BindingDB>
http://www.bindingdb.org/bind/chemsearch/marvin/MolStructure.jsp?monomerid=102467

> <Link to Ligand-Target Pair in BindingDB>
http://www.bindingdb.org/jsp/dbsearch/PrimarySearch_ki.jsp?energyterm=kJ/mole&tag=r21&monomerid=102467&enzyme=Dihydroorotate+dehydrogenase&column=ki&startPg=0&Increment=50&submit=Search

> <PubChem CID>
46847698

> <PubChem SID>
172097758

$$$$

  Mrv2115 07222212352D          

 23 26  0  0  0  0            999 V2000
    1.4289   -2.4750    0.0000 O   0  0  0  0  0  0  0  0  0  0  0  0
    1.4289   -1.6500    0.0000 C   0  0  0  0  0  0  0  0  0  0  0  0
    0.7145   -1.2375    0.0000 C   0  0  0  0  0  0  0  0  0  0  0  0
    0.0000   -1.6500    0.0000 O   0  0  0  0  0  0  0  0  0  0  0  0
    0.7145   -0.4125    0.0000 C   0  0  0  0  0  0  0  0  0  0  0  0
    0.0000    0.0000    0.0000 N   0  0  0  0  0  0  0  0  0  0  0  0
    0.0000    0.8250    0.0000 C   0  0  0  0  0  0  0  0  0  0  0  0
   -0.7145    1.2375    0.0000 C   0  0  0  0  0  0  0  0  0  0  0  0
   -0.7145    2.0625    0.0000 C   0  0  0  0  0  0  0  0  0  0  0  0
    0.0000    2.4750    0.0000 C   0  0  0  0  0  0  0  0  0  0  0  0
    0.7145    2.0625    0.0000 C   0  0  0  0  0  0  0  0  0  0  0  0
    0.7145    1.2375    0.0000 C   0  0  0  0  0  0  0  0  0  0  0  0
    1.3276    2.6145    0.0000 O   0  0  0  0  0  0  0  0  0  0  0  0
    0.9920    3.3682    0.0000 C   0  0  0  0  0  0  0  0  0  0  0  0
    0.1715    3.2820    0.0000 O   0  0  0  0  0  0  0  0  0  0  0  0
    1.4289    0.0000    0.0000 C   0  0  0  0  0  0  0  0  0  0  0  0
    1.4289    0.8250    0.0000 O   0  0  0  0  0  0  0  0  0  0  0  0
    2.1434   -0.4125    0.0000 C   0  0  0  0  0  0  0  0  0  0  0  0
    2.8579    0.0000    0.0000 C   0  0  0  0  0  0  0  0  0  0  0  0
    3.5724   -0.4125    0.0000 C   0  0  0  0  0  0  0  0  0  0  0  0
    3.5724   -1.2375    0.0000 C   0  0  0  0  0  0  0  0  0  0  0  0
    2.8579   -1.6500    0.0000 C   0  0  0  0  0  0  0  0  0  0  0  0
    2.1434   -1.2375    0.0000 C   0  0  0  0  0  0  0  0  0  0  0  0
  1  2  2  0  0  0  0
  2  3  1  0  0  0  0
  3  4  1  0  0  0  0
  3  5  2  0  0  0  0
  5  6  1  0  0  0  0
  6  7  1  0  0  0  0
  7  8  4  0  0  0  0
  8  9  4  0  0  0  0
  9 10  4  0  0  0  0
 10 11  4  0  0  0  0
 11 12  4  0  0  0  0
  7 12  4  0  0  0  0
 11 13  1  0  0  0  0
 13 14  1  0  0  0  0
 14 15  1  0  0  0  0
 10 15  1  0  0  0  0
  5 16  1  0  0  0  0
 16 17  2  0  0  0  0
 16 18  1  0  0  0  0
 18 19  4  0  0  0  0
 19 20  4  0  0  0  0
 20 21  4  0  0  0  0
 21 22  4  0  0  0  0
 22 23  4  0  0  0  0
 18 23  4  0  0  0  0
  2 23  1  0  0  0  0
M  END
> <IC50(uM)>
3.6

> <Outcome>
0.0

> <BindingDB ID>
51282873

> <BindingDB MonomerID>
50523222

> <BindingDB Ligand Name>
CHEMBL4524841

> <Curation/DataSource>
ChEMBL

> <Article DOI>
10.1016/j.ejmech.2019.02.018

> <PMID>
30776695

> <Patent Number>
?

> <Authors>
Calil, FA; David, JS; Chiappetta, ERC; Fumagalli, F; Mello, RB; Leite, FHA; Castilho, MS; Emery, FS; Nonato, MC

> <Link to Ligand in BindingDB>
http://www.bindingdb.org/bind/chemsearch/marvin/MolStructure.jsp?monomerid=50523222

> <Link to Ligand-Target Pair in BindingDB>
http://www.bindingdb.org/jsp/dbsearch/PrimarySearch_ki.jsp?energyterm=kJ/mole&tag=r21&monomerid=50523222&enzyme=Dihydroorotate+dehydrogenase&column=ki&startPg=0&Increment=50&submit=Search

> <PubChem CID>
155538807

> <PubChem SID>
440731804

$$$$

  Mrv2115 07222212352D          

 30 33  0  0  0  0            999 V2000
    0.0000   -1.6500    0.0000 C   0  0  0  0  0  0  0  0  0  0  0  0
    0.7145   -1.2375    0.0000 C   0  0  0  0  0  0  0  0  0  0  0  0
    0.7145   -0.4125    0.0000 C   0  0  0  0  0  0  0  0  0  0  0  0
    0.0000    0.0000    0.0000 C   0  0  0  0  0  0  0  0  0  0  0  0
   -0.7145   -0.4125    0.0000 C   0  0  0  0  0  0  0  0  0  0  0  0
   -1.4289    0.0000    0.0000 C   0  0  0  0  0  0  0  0  0  0  0  0
   -1.4289    0.8250    0.0000 C   0  0  0  0  0  0  0  0  0  0  0  0
   -2.1434    1.2375    0.0000 C   0  0  0  0  0  0  0  0  0  0  0  0
   -2.8579    0.8250    0.0000 C   0  0  0  0  0  0  0  0  0  0  0  0
   -3.5724    1.2375    0.0000 C   0  0  0  0  0  0  0  0  0  0  0  0
   -3.5724    2.0625    0.0000 C   0  0  0  0  0  0  0  0  0  0  0  0
   -2.8579    2.4750    0.0000 C   0  0  0  0  0  0  0  0  0  0  0  0
   -2.1434    2.0625    0.0000 C   0  0  0  0  0  0  0  0  0  0  0  0
   -1.4289    2.4750    0.0000 F   0  0  0  0  0  0  0  0  0  0  0  0
   -0.7145    1.2375    0.0000 C   0  0  0  0  0  0  0  0  0  0  0  0
    0.0000    0.8250    0.0000 C   0  0  0  0  0  0  0  0  0  0  0  0
    1.4289    0.0000    0.0000 N   0  0  0  0  0  0  0  0  0  0  0  0
    2.1434   -0.4125    0.0000 C   0  0  0  0  0  0  0  0  0  0  0  0
    2.8579    0.0000    0.0000 C   0  0  0  0  0  0  0  0  0  0  0  0
    3.5724   -0.4125    0.0000 C   0  0  0  0  0  0  0  0  0  0  0  0
    3.5724   -1.2375    0.0000 C   0  0  0  0  0  0  0  0  0  0  0  0
    4.2868   -1.6500    0.0000 F   0  0  0  0  0  0  0  0  0  0  0  0
    2.8579   -1.6500    0.0000 C   0  0  0  0  0  0  0  0  0  0  0  0
    2.1434   -1.2375    0.0000 C   0  0  0  0  0  0  0  0  0  0  0  0
    1.4289   -1.6500    0.0000 C   0  0  0  0  0  0  0  0  0  0  0  0
    1.4289   -2.4750    0.0000 C   0  0  0  0  0  0  0  0  0  0  0  0
    0.7145   -2.8875    0.0000 O   0  0  0  0  0  0  0  0  0  0  0  0
    2.1434   -2.8875    0.0000 N   0  0  0  0  0  0  0  0  0  0  0  0
    2.1434   -3.7125    0.0000 C   0  0  0  0  0  0  0  0  0  0  0  0
    2.1434   -4.5375    0.0000 N   0  0  0  0  0  0  0  0  0  0  0  0
  1  2  1  0  0  0  0
  2  3  4  0  0  0  0
  3  4  1  0  0  0  0
  4  5  4  0  0  0  0
  5  6  4  0  0  0  0
  6  7  4  0  0  0  0
  7  8  1  0  0  0  0
  8  9  4  0  0  0  0
  9 10  4  0  0  0  0
 10 11  4  0  0  0  0
 11 12  4  0  0  0  0
 12 13  4  0  0  0  0
  8 13  4  0  0  0  0
 13 14  1  0  0  0  0
  7 15  4  0  0  0  0
 15 16  4  0  0  0  0
  4 16  4  0  0  0  0
  3 17  4  0  0  0  0
 17 18  4  0  0  0  0
 18 19  4  0  0  0  0
 19 20  4  0  0  0  0
 20 21  4  0  0  0  0
 21 22  1  0  0  0  0
 21 23  4  0  0  0  0
 23 24  4  0  0  0  0
 18 24  4  0  0  0  0
 24 25  4  0  0  0  0
  2 25  4  0  0  0  0
 25 26  1  0  0  0  0
 26 27  2  0  0  0  0
 26 28  1  0  0  0  0
 28 29  1  0  0  0  0
 29 30  3  0  0  0  0
M  END
> <IC50(uM)>
0.116

> <Outcome>
1.0

> <BindingDB ID>
51370194

> <BindingDB MonomerID>
50554022

> <BindingDB Ligand Name>
CHEMBL4743387

> <Curation/DataSource>
ChEMBL

> <Article DOI>
?

> <PMID>
33007394

> <Patent Number>
?

> <Authors>
DeRatt, LG; Christine Pietsch, E; Tanner, A; Shaffer, P; Jacoby, E; Wang, W; Kazmi, F; Zhang, X; Attar, RM; Edwards, JP; Kuduk, SD

> <Link to Ligand in BindingDB>
http://www.bindingdb.org/bind/chemsearch/marvin/MolStructure.jsp?monomerid=50554022

> <Link to Ligand-Target Pair in BindingDB>
http://www.bindingdb.org/jsp/dbsearch/PrimarySearch_ki.jsp?energyterm=kJ/mole&tag=r21&monomerid=50554022&enzyme=Dihydroorotate+dehydrogenase&column=ki&startPg=0&Increment=50&submit=Search

> <PubChem CID>
162646606

> <PubChem SID>
461692790

$$$$

  Mrv2115 07222212352D          

 37 41  0  0  0  0            999 V2000
    4.0668    2.3479    0.0000 C   0  0  0  0  0  0  0  0  0  0  0  0
    3.3523    1.9354    0.0000 C   0  0  0  0  0  0  0  0  0  0  0  0
    3.3523    1.1104    0.0000 C   0  0  0  0  0  0  0  0  0  0  0  0
    2.6378    0.6979    0.0000 C   0  0  0  0  0  0  0  0  0  0  0  0
    2.6378   -0.1271    0.0000 C   0  0  0  0  0  0  0  0  0  0  0  0
    1.9233   -0.5396    0.0000 O   0  0  0  0  0  0  0  0  0  0  0  0
    3.3523   -0.5396    0.0000 O   0  0  0  0  0  0  0  0  0  0  0  0
    1.9233    1.1104    0.0000 C   0  0  0  0  0  0  0  0  0  0  0  0
    1.1387    0.8555    0.0000 N   0  0  0  0  0  0  0  0  0  0  0  0
    0.6538    1.5229    0.0000 C   0  0  0  0  0  0  0  0  0  0  0  0
   -0.1712    1.5229    0.0000 C   0  0  0  0  0  0  0  0  0  0  0  0
   -0.5837    0.8085    0.0000 C   0  0  0  0  0  0  0  0  0  0  0  0
   -0.1712    0.0940    0.0000 F   0  0  0  0  0  0  0  0  0  0  0  0
   -1.4087    0.8085    0.0000 C   0  0  0  0  0  0  0  0  0  0  0  0
   -1.8212    0.0940    0.0000 F   0  0  0  0  0  0  0  0  0  0  0  0
   -1.8212    1.5229    0.0000 C   0  0  0  0  0  0  0  0  0  0  0  0
   -2.6462    1.5229    0.0000 C   0  0  0  0  0  0  0  0  0  0  0  0
   -3.0587    0.8085    0.0000 C   0  0  0  0  0  0  0  0  0  0  0  0
   -3.8837    0.8085    0.0000 C   0  0  0  0  0  0  0  0  0  0  0  0
   -4.2962    1.5229    0.0000 C   0  0  0  0  0  0  0  0  0  0  0  0
   -3.8837    2.2374    0.0000 C   0  0  0  0  0  0  0  0  0  0  0  0
   -4.2962    2.9519    0.0000 O   0  0  0  0  0  0  0  0  0  0  0  0
   -5.1212    2.9519    0.0000 C   0  0  0  0  0  0  0  0  0  0  0  0
   -5.5337    3.6664    0.0000 C   0  0  0  0  0  0  0  0  0  0  0  0
   -6.3587    3.6664    0.0000 C   0  0  0  0  0  0  0  0  0  0  0  0
   -6.7712    4.3808    0.0000 C   0  0  0  0  0  0  0  0  0  0  0  0
   -6.3587    5.0953    0.0000 C   0  0  0  0  0  0  0  0  0  0  0  0
   -5.5337    5.0953    0.0000 C   0  0  0  0  0  0  0  0  0  0  0  0
   -5.1212    4.3808    0.0000 C   0  0  0  0  0  0  0  0  0  0  0  0
   -3.0587    2.2374    0.0000 C   0  0  0  0  0  0  0  0  0  0  0  0
   -1.4087    2.2374    0.0000 C   0  0  0  0  0  0  0  0  0  0  0  0
   -1.8212    2.9519    0.0000 F   0  0  0  0  0  0  0  0  0  0  0  0
   -0.5837    2.2374    0.0000 C   0  0  0  0  0  0  0  0  0  0  0  0
   -0.1712    2.9519    0.0000 F   0  0  0  0  0  0  0  0  0  0  0  0
    1.1387    2.1904    0.0000 N   0  0  0  0  0  0  0  0  0  0  0  0
    1.9233    1.9354    0.0000 C   0  0  0  0  0  0  0  0  0  0  0  0
    2.6378    2.3479    0.0000 C   0  0  0  0  0  0  0  0  0  0  0  0
  1  2  1  0  0  0  0
  2  3  4  0  0  0  0
  3  4  4  0  0  0  0
  4  5  1  0  0  0  0
  5  6  2  0  0  0  0
  5  7  1  0  0  0  0
  4  8  4  0  0  0  0
  8  9  4  0  0  0  0
  9 10  4  0  0  0  0
 10 11  1  0  0  0  0
 11 12  4  0  0  0  0
 12 13  1  0  0  0  0
 12 14  4  0  0  0  0
 14 15  1  0  0  0  0
 14 16  4  0  0  0  0
 16 17  1  0  0  0  0
 17 18  4  0  0  0  0
 18 19  4  0  0  0  0
 19 20  4  0  0  0  0
 20 21  4  0  0  0  0
 21 22  1  0  0  0  0
 22 23  1  0  0  0  0
 23 24  1  0  0  0  0
 24 25  4  0  0  0  0
 25 26  4  0  0  0  0
 26 27  4  0  0  0  0
 27 28  4  0  0  0  0
 28 29  4  0  0  0  0
 24 29  4  0  0  0  0
 21 30  4  0  0  0  0
 17 30  4  0  0  0  0
 16 31  4  0  0  0  0
 31 32  1  0  0  0  0
 31 33  4  0  0  0  0
 11 33  4  0  0  0  0
 33 34  1  0  0  0  0
 10 35  4  0  0  0  0
 35 36  4  0  0  0  0
  8 36  4  0  0  0  0
 36 37  4  0  0  0  0
  2 37  4  0  0  0  0
M  STY  1   1 DAT
M  SAL   1  1   9
M  SDT   1 MRV_IMPLICIT_H                                        
M  SDD   1     0.5304   -0.4125    DR    ALL  0       0  
M  SED   1 IMPL_H1
M  END
> <IC50(uM)>
0.0136

> <Outcome>
1.0

> <BindingDB ID>
297807

> <BindingDB MonomerID>
155463

> <BindingDB Ligand Name>
US9006454, I105

> <Curation/DataSource>
US Patent

> <Article DOI>
?

> <PMID>
?

> <Patent Number>
US9006454

> <Authors>
Thunuguntla, SS; Subramanya, H; Kunnam, SR; Sanivaru Vijay, SR; Bingi, C; Kusanur, R; Schwarz, M; Arlt, M

> <Link to Ligand in BindingDB>
http://www.bindingdb.org/bind/chemsearch/marvin/MolStructure.jsp?monomerid=155463

> <Link to Ligand-Target Pair in BindingDB>
http://www.bindingdb.org/jsp/dbsearch/PrimarySearch_ki.jsp?energyterm=kJ/mole&tag=r21&monomerid=155463&enzyme=Dihydroorotate+dehydrogenase&column=ki&startPg=0&Increment=50&submit=Search

> <PubChem CID>
88582999

> <PubChem SID>
253658400

$$$$

  Mrv2115 07222212352D          

 24 27  0  0  0  0            999 V2000
    3.9934    2.4750    0.0000 O   0  0  0  0  0  0  0  0  0  0  0  0
    3.2789    2.0625    0.0000 C   0  0  0  0  0  0  0  0  0  0  0  0
    2.5645    2.4750    0.0000 O   0  0  0  0  0  0  0  0  0  0  0  0
    3.2789    1.2375    0.0000 C   0  0  0  0  0  0  0  0  0  0  0  0
    3.9934    0.8250    0.0000 C   0  0  0  0  0  0  0  0  0  0  0  0
    3.9934    0.0000    0.0000 C   0  0  0  0  0  0  0  0  0  0  0  0
    3.2789   -0.4125    0.0000 C   0  0  0  0  0  0  0  0  0  0  0  0
    2.5645    0.0000    0.0000 C   0  0  0  0  0  0  0  0  0  0  0  0
    1.7798   -0.2549    0.0000 C   0  0  0  0  0  0  0  0  0  0  0  0
    1.2949    0.4125    0.0000 C   0  0  0  0  0  0  0  0  0  0  0  0
    0.4699    0.4125    0.0000 C   0  0  0  0  0  0  0  0  0  0  0  0
    0.0574   -0.3020    0.0000 C   0  0  0  0  0  0  0  0  0  0  0  0
   -0.7676   -0.3020    0.0000 C   0  0  0  0  0  0  0  0  0  0  0  0
   -1.1801    0.4125    0.0000 C   0  0  0  0  0  0  0  0  0  0  0  0
   -2.0051    0.4125    0.0000 C   0  0  0  0  0  0  0  0  0  0  0  0
   -2.4176   -0.3020    0.0000 C   0  0  0  0  0  0  0  0  0  0  0  0
   -3.2426   -0.3020    0.0000 C   0  0  0  0  0  0  0  0  0  0  0  0
   -3.6551    0.4125    0.0000 C   0  0  0  0  0  0  0  0  0  0  0  0
   -3.2426    1.1270    0.0000 C   0  0  0  0  0  0  0  0  0  0  0  0
   -2.4176    1.1270    0.0000 C   0  0  0  0  0  0  0  0  0  0  0  0
   -0.7676    1.1270    0.0000 C   0  0  0  0  0  0  0  0  0  0  0  0
    0.0574    1.1270    0.0000 C   0  0  0  0  0  0  0  0  0  0  0  0
    1.7798    1.0799    0.0000 N   0  0  0  0  0  0  0  0  0  0  0  0
    2.5645    0.8250    0.0000 C   0  0  0  0  0  0  0  0  0  0  0  0
  1  2  2  0  0  0  0
  2  3  1  0  0  0  0
  2  4  1  0  0  0  0
  4  5  4  0  0  0  0
  5  6  4  0  0  0  0
  6  7  4  0  0  0  0
  7  8  4  0  0  0  0
  8  9  4  0  0  0  0
  9 10  4  0  0  0  0
 10 11  1  0  0  0  0
 11 12  4  0  0  0  0
 12 13  4  0  0  0  0
 13 14  4  0  0  0  0
 14 15  1  0  0  0  0
 15 16  4  0  0  0  0
 16 17  4  0  0  0  0
 17 18  4  0  0  0  0
 18 19  4  0  0  0  0
 19 20  4  0  0  0  0
 15 20  4  0  0  0  0
 14 21  4  0  0  0  0
 21 22  4  0  0  0  0
 11 22  4  0  0  0  0
 10 23  4  0  0  0  0
 23 24  4  0  0  0  0
  4 24  4  0  0  0  0
  8 24  4  0  0  0  0
M  STY  1   1 DAT
M  SAL   1  1  23
M  SDT   1 MRV_IMPLICIT_H                                        
M  SDD   1     0.5304   -0.4125    DR    ALL  0       0  
M  SED   1 IMPL_H1
M  END
> <IC50(uM)>
0.595

> <Outcome>
1.0

> <BindingDB ID>
297777

> <BindingDB MonomerID>
155433

> <BindingDB Ligand Name>
US9006454, I61

> <Curation/DataSource>
US Patent

> <Article DOI>
?

> <PMID>
?

> <Patent Number>
US9006454

> <Authors>
Thunuguntla, SS; Subramanya, H; Kunnam, SR; Sanivaru Vijay, SR; Bingi, C; Kusanur, R; Schwarz, M; Arlt, M

> <Link to Ligand in BindingDB>
http://www.bindingdb.org/bind/chemsearch/marvin/MolStructure.jsp?monomerid=155433

> <Link to Ligand-Target Pair in BindingDB>
http://www.bindingdb.org/jsp/dbsearch/PrimarySearch_ki.jsp?energyterm=kJ/mole&tag=r21&monomerid=155433&enzyme=Dihydroorotate+dehydrogenase&column=ki&startPg=0&Increment=50&submit=Search

> <PubChem CID>
46946987

> <PubChem SID>
253658370

$$$$

  Mrv2115 07222212352D          

 28 30  0  0  0  0            999 V2000
    1.4289   -4.9500    0.0000 O   0  0  0  0  0  0  0  0  0  0  0  0
    2.1434   -5.3625    0.0000 C   0  0  0  0  0  0  0  0  0  0  0  0
    2.8579   -4.9500    0.0000 O   0  0  0  0  0  0  0  0  0  0  0  0
    2.1434   -6.1875    0.0000 C   0  0  0  0  0  0  0  0  0  0  0  0
    2.8109   -6.6724    0.0000 C   0  0  0  0  0  0  0  0  0  0  0  0
    3.5955   -6.4175    0.0000 C   0  0  0  0  0  0  0  0  0  0  0  0
    4.2086   -6.9695    0.0000 O   0  0  0  0  0  0  0  0  0  0  0  0
    3.7670   -5.6105    0.0000 N   0  0  0  0  0  0  0  0  0  0  0  0
    4.5516   -5.3556    0.0000 C   0  0  0  0  0  0  0  0  0  0  0  0
    4.7231   -4.5486    0.0000 C   0  0  0  0  0  0  0  0  0  0  0  0
    5.5078   -4.2937    0.0000 C   0  0  0  0  0  0  0  0  0  0  0  0
    6.1209   -4.8457    0.0000 C   0  0  0  0  0  0  0  0  0  0  0  0
    6.9055   -4.5908    0.0000 O   0  0  0  0  0  0  0  0  0  0  0  0
    7.0770   -3.7838    0.0000 C   0  0  0  0  0  0  0  0  0  0  0  0
    7.8616   -3.5288    0.0000 C   0  0  0  0  0  0  0  0  0  0  0  0
    8.0332   -2.7219    0.0000 C   0  0  0  0  0  0  0  0  0  0  0  0
    7.4201   -2.1698    0.0000 F   0  0  0  0  0  0  0  0  0  0  0  0
    8.8178   -2.4669    0.0000 C   0  0  0  0  0  0  0  0  0  0  0  0
    9.4309   -3.0190    0.0000 C   0  0  0  0  0  0  0  0  0  0  0  0
    9.2594   -3.8259    0.0000 C   0  0  0  0  0  0  0  0  0  0  0  0
    8.4747   -4.0809    0.0000 C   0  0  0  0  0  0  0  0  0  0  0  0
    8.3032   -4.8878    0.0000 Cl  0  0  0  0  0  0  0  0  0  0  0  0
    5.9493   -5.6527    0.0000 C   0  0  0  0  0  0  0  0  0  0  0  0
    6.5624   -6.2047    0.0000 Cl  0  0  0  0  0  0  0  0  0  0  0  0
    5.1647   -5.9076    0.0000 C   0  0  0  0  0  0  0  0  0  0  0  0
    2.5559   -7.4570    0.0000 C   0  0  0  0  0  0  0  0  0  0  0  0
    1.7309   -7.4570    0.0000 O   0  0  0  0  0  0  0  0  0  0  0  0
    1.4760   -6.6724    0.0000 C   0  0  0  0  0  0  0  0  0  0  0  0
  1  2  2  0  0  0  0
  2  3  1  0  0  0  0
  2  4  1  0  0  0  0
  4  5  2  0  0  0  0
  5  6  1  0  0  0  0
  6  7  2  0  0  0  0
  6  8  1  0  0  0  0
  8  9  1  0  0  0  0
  9 10  4  0  0  0  0
 10 11  4  0  0  0  0
 11 12  4  0  0  0  0
 12 13  1  0  0  0  0
 13 14  1  0  0  0  0
 14 15  1  0  0  0  0
 15 16  4  0  0  0  0
 16 17  1  0  0  0  0
 16 18  4  0  0  0  0
 18 19  4  0  0  0  0
 19 20  4  0  0  0  0
 20 21  4  0  0  0  0
 15 21  4  0  0  0  0
 21 22  1  0  0  0  0
 12 23  4  0  0  0  0
 23 24  1  0  0  0  0
 23 25  4  0  0  0  0
  9 25  4  0  0  0  0
  5 26  1  0  0  0  0
 26 27  1  0  0  0  0
 27 28  1  0  0  0  0
  4 28  1  0  0  0  0
M  END
> <IC50(uM)>
0.041

> <Outcome>
1.0

> <BindingDB ID>
50319874

> <BindingDB MonomerID>
50173144

> <BindingDB Ligand Name>
4-[3-Chloro-4-(2-chloro-6-fluoro-benzyloxy)-phenylcarbamoyl]-2,5-dihydro-furan-3-carboxylic acid::CHEMBL193371

> <Curation/DataSource>
ChEMBL

> <Article DOI>
10.1016/j.bmcl.2005.07.053

> <PMID>
16143532

> <Patent Number>
?

> <Authors>
Leban, J; Kralik, M; Mies, J; Gassen, M; Tentschert, K; Baumgartner, R

> <Link to Ligand in BindingDB>
http://www.bindingdb.org/bind/chemsearch/marvin/MolStructure.jsp?monomerid=50173144

> <Link to Ligand-Target Pair in BindingDB>
http://www.bindingdb.org/jsp/dbsearch/PrimarySearch_ki.jsp?energyterm=kJ/mole&tag=r21&monomerid=50173144&enzyme=Dihydroorotate+dehydrogenase&column=ki&startPg=0&Increment=50&submit=Search

> <PubChem CID>
44403188

> <PubChem SID>
104059115

$$$$

  Mrv2115 07222212352D          

 26 29  0  0  0  0            999 V2000
   -0.7145   -2.0625    0.0000 N   0  0  0  0  0  0  0  0  0  0  0  0
    0.0000   -1.6500    0.0000 C   0  0  0  0  0  0  0  0  0  0  0  0
    0.7145   -1.2375    0.0000 C   0  0  0  0  0  0  0  0  0  0  0  0
    0.7145   -0.4125    0.0000 C   0  0  0  0  0  0  0  0  0  0  0  0
    0.0000    0.0000    0.0000 C   0  0  0  0  0  0  0  0  0  0  0  0
   -0.7145   -0.4125    0.0000 C   0  0  0  0  0  0  0  0  0  0  0  0
   -1.4289    0.0000    0.0000 C   0  0  0  0  0  0  0  0  0  0  0  0
   -1.4289    0.8250    0.0000 C   0  0  0  0  0  0  0  0  0  0  0  0
   -2.1434    1.2375    0.0000 C   0  0  0  0  0  0  0  0  0  0  0  0
   -2.8579    0.8250    0.0000 C   0  0  0  0  0  0  0  0  0  0  0  0
   -3.5724    1.2375    0.0000 C   0  0  0  0  0  0  0  0  0  0  0  0
   -3.5724    2.0625    0.0000 N   0  0  0  0  0  0  0  0  0  0  0  0
   -2.8579    2.4750    0.0000 C   0  0  0  0  0  0  0  0  0  0  0  0
   -2.1434    2.0625    0.0000 C   0  0  0  0  0  0  0  0  0  0  0  0
   -1.4289    2.4750    0.0000 Cl  0  0  0  0  0  0  0  0  0  0  0  0
   -0.7145    1.2375    0.0000 C   0  0  0  0  0  0  0  0  0  0  0  0
    0.0000    0.8250    0.0000 C   0  0  0  0  0  0  0  0  0  0  0  0
    1.4289    0.0000    0.0000 N   0  0  0  0  0  0  0  0  0  0  0  0
    2.1434   -0.4125    0.0000 C   0  0  0  0  0  0  0  0  0  0  0  0
    2.8579    0.0000    0.0000 C   0  0  0  0  0  0  0  0  0  0  0  0
    3.5724   -0.4125    0.0000 C   0  0  0  0  0  0  0  0  0  0  0  0
    3.5724   -1.2375    0.0000 N   0  0  0  0  0  0  0  0  0  0  0  0
    2.8579   -1.6500    0.0000 C   0  0  0  0  0  0  0  0  0  0  0  0
    2.1434   -1.2375    0.0000 C   0  0  0  0  0  0  0  0  0  0  0  0
    1.4289   -1.6500    0.0000 C   0  0  0  0  0  0  0  0  0  0  0  0
    1.4289   -2.4750    0.0000 O   0  0  0  0  0  0  0  0  0  0  0  0
  1  2  3  0  0  0  0
  2  3  1  0  0  0  0
  3  4  4  0  0  0  0
  4  5  1  0  0  0  0
  5  6  4  0  0  0  0
  6  7  4  0  0  0  0
  7  8  4  0  0  0  0
  8  9  1  0  0  0  0
  9 10  4  0  0  0  0
 10 11  4  0  0  0  0
 11 12  4  0  0  0  0
 12 13  4  0  0  0  0
 13 14  4  0  0  0  0
  9 14  4  0  0  0  0
 14 15  1  0  0  0  0
  8 16  4  0  0  0  0
 16 17  4  0  0  0  0
  5 17  4  0  0  0  0
  4 18  4  0  0  0  0
 18 19  4  0  0  0  0
 19 20  4  0  0  0  0
 20 21  4  0  0  0  0
 21 22  4  0  0  0  0
 22 23  4  0  0  0  0
 23 24  4  0  0  0  0
 19 24  4  0  0  0  0
 24 25  4  0  0  0  0
  3 25  4  0  0  0  0
 25 26  1  0  0  0  0
M  END
> <IC50(uM)>
6.3

> <Outcome>
0.0

> <BindingDB ID>
50720832

> <BindingDB MonomerID>
50365496

> <BindingDB Ligand Name>
CHEMBL1957370

> <Curation/DataSource>
ChEMBL

> <Article DOI>
10.1016/j.bmcl.2012.01.046

> <PMID>
22321214

> <Patent Number>
?

> <Authors>
Bauer, U; Giordanetto, F; Bauer, M; O'Mahony, G; Johansson, KE; Knecht, W; Hartleib-Geschwindner, J; Carlsson, ET; Enroth, C

> <Link to Ligand in BindingDB>
http://www.bindingdb.org/bind/chemsearch/marvin/MolStructure.jsp?monomerid=50365496

> <Link to Ligand-Target Pair in BindingDB>
http://www.bindingdb.org/jsp/dbsearch/PrimarySearch_ki.jsp?energyterm=kJ/mole&tag=r21&monomerid=50365496&enzyme=Dihydroorotate+dehydrogenase&column=ki&startPg=0&Increment=50&submit=Search

> <PubChem CID>
57401837

> <PubChem SID>
136969558

$$$$

  Mrv2115 07222212352D          

 28 29  0  0  0  0            999 V2000
    1.4289   -6.6000    0.0000 C   0  0  0  0  0  0  0  0  0  0  0  0
    2.1434   -6.1875    0.0000 C   0  0  0  0  0  0  0  0  0  0  0  0
    2.8579   -6.6000    0.0000 C   0  0  0  0  0  0  0  0  0  0  0  0
    2.8579   -7.4250    0.0000 O   0  0  0  0  0  0  0  0  0  0  0  0
    3.5724   -6.1875    0.0000 C   0  0  0  0  0  0  0  0  0  0  0  0
    3.5724   -5.3625    0.0000 C   0  0  0  0  0  0  0  0  0  0  0  0
    3.5724   -4.5375    0.0000 N   0  0  0  0  0  0  0  0  0  0  0  0
    4.2868   -6.6000    0.0000 C   0  0  0  0  0  0  0  0  0  0  0  0
    4.2868   -7.4250    0.0000 O   0  0  0  0  0  0  0  0  0  0  0  0
    5.0013   -6.1875    0.0000 N   0  0  0  0  0  0  0  0  0  0  0  0
    5.7158   -6.6000    0.0000 C   0  0  0  0  0  0  0  0  0  0  0  0
    5.7158   -7.4250    0.0000 C   0  0  0  0  0  0  0  0  0  0  0  0
    6.4302   -7.8375    0.0000 C   0  0  0  0  0  0  0  0  0  0  0  0
    7.1447   -7.4250    0.0000 C   0  0  0  0  0  0  0  0  0  0  0  0
    7.8592   -7.8375    0.0000 C   0  0  0  0  0  0  0  0  0  0  0  0
    8.5737   -7.4250    0.0000 C   0  0  0  0  0  0  0  0  0  0  0  0
    9.2881   -7.8375    0.0000 C   0  0  0  0  0  0  0  0  0  0  0  0
    9.2881   -8.6625    0.0000 C   0  0  0  0  0  0  0  0  0  0  0  0
   10.0026   -9.0750    0.0000 F   0  0  0  0  0  0  0  0  0  0  0  0
    8.5737   -9.0750    0.0000 C   0  0  0  0  0  0  0  0  0  0  0  0
    7.8592   -8.6625    0.0000 C   0  0  0  0  0  0  0  0  0  0  0  0
    7.1447   -9.0750    0.0000 F   0  0  0  0  0  0  0  0  0  0  0  0
    7.1447   -6.6000    0.0000 C   0  0  0  0  0  0  0  0  0  0  0  0
    7.8592   -6.1875    0.0000 C   0  0  0  0  0  0  0  0  0  0  0  0
    7.8592   -5.3625    0.0000 O   0  0  0  0  0  0  0  0  0  0  0  0
    8.5737   -6.6000    0.0000 O   0  0  0  0  0  0  0  0  0  0  0  0
    9.2881   -6.1875    0.0000 C   0  0  0  0  0  0  0  0  0  0  0  0
    6.4302   -6.1875    0.0000 C   0  0  0  0  0  0  0  0  0  0  0  0
  1  2  1  0  0  0  0
  2  3  1  0  0  0  0
  3  4  2  0  0  0  0
  3  5  1  0  0  0  0
  5  6  1  0  0  0  0
  6  7  3  0  0  0  0
  5  8  1  0  0  0  0
  8  9  2  0  0  0  0
  8 10  1  0  0  0  0
 10 11  1  0  0  0  0
 11 12  4  0  0  0  0
 12 13  4  0  0  0  0
 13 14  4  0  0  0  0
 14 15  1  0  0  0  0
 15 16  4  0  0  0  0
 16 17  4  0  0  0  0
 17 18  4  0  0  0  0
 18 19  1  0  0  0  0
 18 20  4  0  0  0  0
 20 21  4  0  0  0  0
 15 21  4  0  0  0  0
 21 22  1  0  0  0  0
 14 23  4  0  0  0  0
 23 24  1  0  0  0  0
 24 25  2  0  0  0  0
 24 26  1  0  0  0  0
 26 27  1  0  0  0  0
 23 28  4  0  0  0  0
 11 28  4  0  0  0  0
M  END
> <IC50(uM)>
0.031

> <Outcome>
1.0

> <BindingDB ID>
50707376

> <BindingDB MonomerID>
50359697

> <BindingDB Ligand Name>
CHEMBL1929441

> <Curation/DataSource>
ChEMBL

> <Article DOI>
10.1016/j.bmcl.2011.10.052

> <PMID>
22078215

> <Patent Number>
?

> <Authors>
Erra, M; Moreno, I; Sanahuja, J; Andres, M; Reinoso, RF; Lozoya, E; Pizcueta, P; Godessart, N; Castro-Palomino, JC

> <Link to Ligand in BindingDB>
http://www.bindingdb.org/bind/chemsearch/marvin/MolStructure.jsp?monomerid=50359697

> <Link to Ligand-Target Pair in BindingDB>
http://www.bindingdb.org/jsp/dbsearch/PrimarySearch_ki.jsp?energyterm=kJ/mole&tag=r21&monomerid=50359697&enzyme=Dihydroorotate+dehydrogenase&column=ki&startPg=0&Increment=50&submit=Search

> <PubChem CID>
91930445

> <PubChem SID>
136963721

$$$$

  Mrv2115 07222212352D          

 17 18  0  0  0  0            999 V2000
    2.0367   -0.4741    0.0000 C   0  0  0  0  0  0  0  0  0  0  0  0
    2.0367   -1.2991    0.0000 C   0  0  0  0  0  0  0  0  0  0  0  0
    2.7041   -1.7840    0.0000 N   0  0  0  0  0  0  0  0  0  0  0  0
    2.4492   -2.5687    0.0000 N   0  0  0  0  0  0  0  0  0  0  0  0
    1.6242   -2.5687    0.0000 C   0  0  0  0  0  0  0  0  0  0  0  0
    1.1393   -3.2361    0.0000 N   0  0  0  0  0  0  0  0  0  0  0  0
    0.3188   -3.1499    0.0000 C   0  0  0  0  0  0  0  0  0  0  0  0
   -0.1661   -3.8173    0.0000 C   0  0  0  0  0  0  0  0  0  0  0  0
   -0.9866   -3.7311    0.0000 C   0  0  0  0  0  0  0  0  0  0  0  0
   -1.3222   -2.9774    0.0000 C   0  0  0  0  0  0  0  0  0  0  0  0
   -2.1426   -2.8911    0.0000 C   0  0  0  0  0  0  0  0  0  0  0  0
   -2.9631   -2.8049    0.0000 N   0  0  0  0  0  0  0  0  0  0  0  0
   -0.8372   -2.3099    0.0000 C   0  0  0  0  0  0  0  0  0  0  0  0
   -0.0168   -2.3962    0.0000 C   0  0  0  0  0  0  0  0  0  0  0  0
    1.3693   -1.7840    0.0000 C   0  0  0  0  0  0  0  0  0  0  0  0
    0.5846   -1.5291    0.0000 C   0  0  0  0  0  0  0  0  0  0  0  0
   -0.2000   -1.2742    0.0000 N   0  0  0  0  0  0  0  0  0  0  0  0
  1  2  1  0  0  0  0
  2  3  4  0  0  0  0
  3  4  4  0  0  0  0
  4  5  4  0  0  0  0
  5  6  1  0  0  0  0
  6  7  1  0  0  0  0
  7  8  4  0  0  0  0
  8  9  4  0  0  0  0
  9 10  4  0  0  0  0
 10 11  1  0  0  0  0
 11 12  3  0  0  0  0
 10 13  4  0  0  0  0
 13 14  4  0  0  0  0
  7 14  4  0  0  0  0
  5 15  4  0  0  0  0
  2 15  4  0  0  0  0
 15 16  1  0  0  0  0
 16 17  3  0  0  0  0
M  STY  1   1 DAT
M  SAL   1  1   4
M  SDT   1 MRV_IMPLICIT_H                                        
M  SDD   1     0.5304   -0.4125    DR    ALL  0       0  
M  SED   1 IMPL_H1
M  END
> <IC50(uM)>
3.2

> <Outcome>
0.0

> <BindingDB ID>
50786793

> <BindingDB MonomerID>
50066588

> <BindingDB Ligand Name>
3-(4-Cyano-phenylamino)-5-methyl-1H-pyrazole-4-carbonitrile::CHEMBL119801

> <Curation/DataSource>
ChEMBL

> <Article DOI>
10.1021/jm981028c

> <PMID>
9719606

> <Patent Number>
?

> <Authors>
Papageorgiou, C; Albert, R; Floersheim, P; Lemaire, M; Bitch, F; Weber, HP; Andersen, E; Hungerford, V; Schreier, MH

> <Link to Ligand in BindingDB>
http://www.bindingdb.org/bind/chemsearch/marvin/MolStructure.jsp?monomerid=50066588

> <Link to Ligand-Target Pair in BindingDB>
http://www.bindingdb.org/jsp/dbsearch/PrimarySearch_ki.jsp?energyterm=kJ/mole&tag=r21&monomerid=50066588&enzyme=Dihydroorotate+dehydrogenase&column=ki&startPg=0&Increment=50&submit=Search

> <PubChem CID>
10680597

> <PubChem SID>
103961208

$$$$

  Mrv2115 07222212352D          

 33 36  0  0  0  0            999 V2000
    0.6538    2.1599    0.0000 C   0  0  0  0  0  0  0  0  0  0  0  0
   -0.1712    2.1599    0.0000 C   0  0  0  0  0  0  0  0  0  0  0  0
   -0.5837    1.4455    0.0000 C   0  0  0  0  0  0  0  0  0  0  0  0
   -1.4087    1.4455    0.0000 C   0  0  0  0  0  0  0  0  0  0  0  0
   -1.8212    2.1599    0.0000 C   0  0  0  0  0  0  0  0  0  0  0  0
   -1.8212    0.7310    0.0000 O   0  0  0  0  0  0  0  0  0  0  0  0
   -1.4087    0.0165    0.0000 C   0  0  0  0  0  0  0  0  0  0  0  0
   -0.5837    0.0165    0.0000 C   0  0  0  0  0  0  0  0  0  0  0  0
   -0.1712   -0.6979    0.0000 C   0  0  0  0  0  0  0  0  0  0  0  0
    0.6538   -0.6979    0.0000 N   0  0  0  0  0  0  0  0  0  0  0  0
    1.1387   -0.0305    0.0000 N   0  0  0  0  0  0  0  0  0  0  0  0
    1.9233   -0.2854    0.0000 C   0  0  0  0  0  0  0  0  0  0  0  0
    2.6378    0.1271    0.0000 C   0  0  0  0  0  0  0  0  0  0  0  0
    3.3523   -0.2854    0.0000 C   0  0  0  0  0  0  0  0  0  0  0  0
    3.3523   -1.1104    0.0000 C   0  0  0  0  0  0  0  0  0  0  0  0
    2.6378   -1.5229    0.0000 C   0  0  0  0  0  0  0  0  0  0  0  0
    1.9233   -1.1104    0.0000 N   0  0  0  0  0  0  0  0  0  0  0  0
    1.1387   -1.3654    0.0000 C   0  0  0  0  0  0  0  0  0  0  0  0
    0.8838   -2.1500    0.0000 O   0  0  0  0  0  0  0  0  0  0  0  0
   -0.5837   -1.4124    0.0000 C   0  0  0  0  0  0  0  0  0  0  0  0
   -0.1712   -2.1269    0.0000 F   0  0  0  0  0  0  0  0  0  0  0  0
   -1.4087   -1.4124    0.0000 C   0  0  0  0  0  0  0  0  0  0  0  0
   -1.8212   -0.6979    0.0000 C   0  0  0  0  0  0  0  0  0  0  0  0
   -2.6462   -0.6979    0.0000 C   0  0  0  0  0  0  0  0  0  0  0  0
   -3.0587    0.0165    0.0000 O   0  0  0  0  0  0  0  0  0  0  0  0
   -3.0587   -1.4124    0.0000 N   0  0  0  0  0  0  0  0  0  0  0  0
   -2.6462   -2.1269    0.0000 C   0  0  0  0  0  0  0  0  0  0  0  0
   -1.8212   -2.1269    0.0000 C   0  0  0  0  0  0  0  0  0  0  0  0
   -1.4087   -2.8414    0.0000 C   0  0  0  0  0  0  0  0  0  0  0  0
   -1.8212   -3.5558    0.0000 C   0  0  0  0  0  0  0  0  0  0  0  0
   -2.6462   -3.5558    0.0000 C   0  0  0  0  0  0  0  0  0  0  0  0
   -3.0587   -2.8414    0.0000 C   0  0  0  0  0  0  0  0  0  0  0  0
   -3.8837   -2.8414    0.0000 F   0  0  0  0  0  0  0  0  0  0  0  0
  1  2  1  0  0  0  0
  2  3  1  0  0  0  0
  3  4  1  0  0  0  0
  4  5  1  0  0  0  0
  4  6  1  0  0  0  0
  6  7  1  0  0  0  0
  7  8  4  0  0  0  0
  8  9  4  0  0  0  0
  9 10  1  0  0  0  0
 10 11  4  0  0  0  0
 11 12  4  0  0  0  0
 12 13  4  0  0  0  0
 13 14  4  0  0  0  0
 14 15  4  0  0  0  0
 15 16  4  0  0  0  0
 16 17  4  0  0  0  0
 12 17  4  0  0  0  0
 17 18  4  0  0  0  0
 10 18  4  0  0  0  0
 18 19  2  0  0  0  0
  9 20  4  0  0  0  0
 20 21  1  0  0  0  0
 20 22  4  0  0  0  0
 22 23  4  0  0  0  0
  7 23  4  0  0  0  0
 23 24  1  0  0  0  0
 24 25  2  0  0  0  0
 24 26  1  0  0  0  0
 26 27  1  0  0  0  0
 27 28  4  0  0  0  0
 28 29  4  0  0  0  0
 29 30  4  0  0  0  0
 30 31  4  0  0  0  0
 31 32  4  0  0  0  0
 27 32  4  0  0  0  0
 32 33  1  0  0  0  0
M  END
> <IC50(uM)>
0.5515

> <Outcome>
1.0

> <BindingDB ID>
1020613; 1020614

> <BindingDB MonomerID>
490550

> <BindingDB Ligand Name>
5-fluoro-N-(2-fluorophenyl)-4-(3-oxo[1,2,4]triazolo[4,3-a]pyridin-2(3H)-yl)-2-[(2S)-pentan-2-yloxy]benzamide::US10968216, Example 218

> <Curation/DataSource>
US Patent

> <Article DOI>
?

> <PMID>
?

> <Patent Number>
US10968216

> <Authors>
Gradl, SN; Nguyen, D; Eis, K; Gunther, J; Stellfeld, T; Janzer, A; Christian, S; Mueller, T; Sheikh, SE; Zhou, HJ; Zhao, C; Sykes, DB; Ferrara, SJ; Liu, K; Herbert, SA; Merz, C; Niehues, M; Nising, CF; Schafer, M; Zimmermann, K; Knablein, J; Thede, K; Faupel, T

> <Link to Ligand in BindingDB>
http://www.bindingdb.org/bind/chemsearch/marvin/MolStructure.jsp?monomerid=490550

> <Link to Ligand-Target Pair in BindingDB>
http://www.bindingdb.org/jsp/dbsearch/PrimarySearch_ki.jsp?energyterm=kJ/mole&tag=r21&monomerid=490550&enzyme=Dihydroorotate+dehydrogenase&column=ki&startPg=0&Increment=50&submit=Search

> <PubChem CID>
134474010

> <PubChem SID>
447117276

$$$$

  Mrv2115 07222212352D          

 25 28  0  0  0  0            999 V2000
   -0.1712   -0.6979    0.0000 C   0  0  0  0  0  0  0  0  0  0  0  0
    0.6538   -0.6979    0.0000 C   0  0  0  0  0  0  0  0  0  0  0  0
    1.1387   -0.0305    0.0000 N   0  0  0  0  0  0  0  0  0  0  0  0
    1.9233   -0.2854    0.0000 C   0  0  0  0  0  0  0  0  0  0  0  0
    2.6378    0.1271    0.0000 C   0  0  0  0  0  0  0  0  0  0  0  0
    2.6378    0.9521    0.0000 C   0  0  0  0  0  0  0  0  0  0  0  0
    3.3523    1.3646    0.0000 O   0  0  0  0  0  0  0  0  0  0  0  0
    1.9233    1.3646    0.0000 O   0  0  0  0  0  0  0  0  0  0  0  0
    3.3523   -0.2854    0.0000 C   0  0  0  0  0  0  0  0  0  0  0  0
    3.3523   -1.1104    0.0000 C   0  0  0  0  0  0  0  0  0  0  0  0
    4.0668   -1.5229    0.0000 C   0  0  0  0  0  0  0  0  0  0  0  0
    4.7812   -1.1104    0.0000 C   0  0  0  0  0  0  0  0  0  0  0  0
    5.4957   -1.5229    0.0000 C   0  0  0  0  0  0  0  0  0  0  0  0
    5.4957   -2.3479    0.0000 C   0  0  0  0  0  0  0  0  0  0  0  0
    6.2102   -2.7604    0.0000 C   0  0  0  0  0  0  0  0  0  0  0  0
    6.9246   -2.3479    0.0000 C   0  0  0  0  0  0  0  0  0  0  0  0
    7.6391   -2.7604    0.0000 C   0  0  0  0  0  0  0  0  0  0  0  0
    7.6391   -3.5854    0.0000 C   0  0  0  0  0  0  0  0  0  0  0  0
    6.9246   -3.9979    0.0000 C   0  0  0  0  0  0  0  0  0  0  0  0
    6.2102   -3.5854    0.0000 C   0  0  0  0  0  0  0  0  0  0  0  0
    4.7812   -2.7604    0.0000 C   0  0  0  0  0  0  0  0  0  0  0  0
    4.0668   -2.3479    0.0000 C   0  0  0  0  0  0  0  0  0  0  0  0
    2.6378   -1.5229    0.0000 C   0  0  0  0  0  0  0  0  0  0  0  0
    1.9233   -1.1104    0.0000 C   0  0  0  0  0  0  0  0  0  0  0  0
    1.1387   -1.3654    0.0000 N   0  0  0  0  0  0  0  0  0  0  0  0
  1  2  1  0  0  0  0
  2  3  4  0  0  0  0
  3  4  4  0  0  0  0
  4  5  4  0  0  0  0
  5  6  1  0  0  0  0
  6  7  2  0  0  0  0
  6  8  1  0  0  0  0
  5  9  4  0  0  0  0
  9 10  4  0  0  0  0
 10 11  1  0  0  0  0
 11 12  4  0  0  0  0
 12 13  4  0  0  0  0
 13 14  4  0  0  0  0
 14 15  1  0  0  0  0
 15 16  4  0  0  0  0
 16 17  4  0  0  0  0
 17 18  4  0  0  0  0
 18 19  4  0  0  0  0
 19 20  4  0  0  0  0
 15 20  4  0  0  0  0
 14 21  4  0  0  0  0
 21 22  4  0  0  0  0
 11 22  4  0  0  0  0
 10 23  4  0  0  0  0
 23 24  4  0  0  0  0
  4 24  4  0  0  0  0
 24 25  4  0  0  0  0
  2 25  4  0  0  0  0
M  STY  1   1 DAT
M  SAL   1  1  25
M  SDT   1 MRV_IMPLICIT_H                                        
M  SDD   1     0.5304   -0.4125    DR    ALL  0       0  
M  SED   1 IMPL_H1
M  END
> <IC50(uM)>
0.0325

> <Outcome>
1.0

> <BindingDB ID>
1045582; 51390139

> <BindingDB MonomerID>
501639

> <BindingDB Ligand Name>
US11028054, Example 1

> <Curation/DataSource>
US Patent; ChEMBL

> <Article DOI>
?

> <PMID>
?; 33214811

> <Patent Number>
US11028054; ?

> <Authors>
Thunuguntla, SS; Hosahalli, S; Panigrahi, SK; Schwarz, M; Arit, M; Abdel-Magid, AF

> <Link to Ligand in BindingDB>
http://www.bindingdb.org/bind/chemsearch/marvin/MolStructure.jsp?monomerid=501639

> <Link to Ligand-Target Pair in BindingDB>
http://www.bindingdb.org/jsp/dbsearch/PrimarySearch_ki.jsp?energyterm=kJ/mole&tag=r21&monomerid=501639&enzyme=Dihydroorotate+dehydrogenase&column=ki&startPg=0&Increment=50&submit=Search

> <PubChem CID>
?; 135313564

> <PubChem SID>
?; 459086972

$$$$

  Mrv2115 07222212352D          

 23 24  0  0  0  0            999 V2000
    0.7145   -2.0625    0.0000 O   0  0  0  0  0  0  0  0  0  0  0  0
    0.7145   -1.2375    0.0000 C   0  0  0  0  0  0  0  0  0  0  0  0
    1.4289   -0.8250    0.0000 N   0  0  0  0  0  0  0  0  0  0  0  0
    2.1434   -1.2375    0.0000 C   0  0  0  0  0  0  0  0  0  0  0  0
    2.8579   -0.8250    0.0000 C   0  0  0  0  0  0  0  0  0  0  0  0
    3.5724   -1.2375    0.0000 C   0  0  0  0  0  0  0  0  0  0  0  0
    4.2868   -0.8250    0.0000 C   0  0  0  0  0  0  0  0  0  0  0  0
    4.2868    0.0000    0.0000 C   0  0  0  0  0  0  0  0  0  0  0  0
    3.5724    0.4125    0.0000 C   0  0  0  0  0  0  0  0  0  0  0  0
    3.5724    1.2375    0.0000 O   0  0  0  0  0  0  0  0  0  0  0  0
    2.8579    0.0000    0.0000 O   0  0  0  0  0  0  0  0  0  0  0  0
    5.0013    0.4125    0.0000 N   0  0  0  0  0  0  0  0  0  0  0  0
    5.7158    0.0000    0.0000 C   0  0  0  0  0  0  0  0  0  0  0  0
    6.4302    0.4125    0.0000 O   0  0  0  0  0  0  0  0  0  0  0  0
    5.7158   -0.8250    0.0000 N   0  0  0  0  0  0  0  0  0  0  0  0
    5.0013   -1.2375    0.0000 C   0  0  0  0  0  0  0  0  0  0  0  0
    5.0013   -2.0625    0.0000 O   0  0  0  0  0  0  0  0  0  0  0  0
    0.0000   -0.8250    0.0000 C   0  0  0  0  0  0  0  0  0  0  0  0
   -0.7145   -1.2375    0.0000 C   0  0  0  0  0  0  0  0  0  0  0  0
   -1.4289   -0.8250    0.0000 C   0  0  0  0  0  0  0  0  0  0  0  0
   -1.4289    0.0000    0.0000 C   0  0  0  0  0  0  0  0  0  0  0  0
   -0.7145    0.4125    0.0000 C   0  0  0  0  0  0  0  0  0  0  0  0
    0.0000   -0.0000    0.0000 C   0  0  0  0  0  0  0  0  0  0  0  0
  1  2  2  0  0  0  0
  2  3  1  0  0  0  0
  3  4  1  0  0  0  0
  4  5  1  0  0  0  0
  5  6  1  0  0  0  0
  6  7  1  0  0  0  0
  7  8  4  0  0  0  0
  8  9  1  0  0  0  0
  9 10  2  0  0  0  0
  9 11  1  0  0  0  0
  8 12  4  0  0  0  0
 12 13  4  0  0  0  0
 13 14  2  0  0  0  0
 13 15  4  0  0  0  0
 15 16  4  0  0  0  0
  7 16  4  0  0  0  0
 16 17  2  0  0  0  0
  2 18  1  0  0  0  0
 18 19  4  0  0  0  0
 19 20  4  0  0  0  0
 20 21  4  0  0  0  0
 21 22  4  0  0  0  0
 22 23  4  0  0  0  0
 18 23  4  0  0  0  0
M  STY  2   1 DAT   2 DAT
M  SAL   1  1  12
M  SDT   1 MRV_IMPLICIT_H                                        
M  SDD   1     0.6482   -0.4125    DR    ALL  0       0  
M  SED   1 IMPL_H1
M  SAL   2  1  15
M  SDT   2 MRV_IMPLICIT_H                                        
M  SDD   2     0.5304   -0.4125    DR    ALL  0       0  
M  SED   2 IMPL_H1
M  END
> <IC50(uM)>
0.625

> <Outcome>
1.0

> <BindingDB ID>
50555291

> <BindingDB MonomerID>
50211724

> <BindingDB Ligand Name>
CHEMBL3960872

> <Curation/DataSource>
ChEMBL

> <Article DOI>
10.1016/j.bmc.2017.01.009

> <PMID>
28118956

> <Patent Number>
?

> <Authors>
Inaoka, DK; Iida, M; Hashimoto, S; Tabuchi, T; Kuranaga, T; Balogun, EO; Honma, T; Tanaka, A; Harada, S; Nara, T; Kita, K; Inoue, M

> <Link to Ligand in BindingDB>
http://www.bindingdb.org/bind/chemsearch/marvin/MolStructure.jsp?monomerid=50211724

> <Link to Ligand-Target Pair in BindingDB>
http://www.bindingdb.org/jsp/dbsearch/PrimarySearch_ki.jsp?energyterm=kJ/mole&tag=r21&monomerid=50211724&enzyme=Dihydroorotate+dehydrogenase&column=ki&startPg=0&Increment=50&submit=Search

> <PubChem CID>
134155982

> <PubChem SID>
375983064

$$$$

  Mrv2115 07222212352D          

 35 39  0  0  0  0            999 V2000
   -1.8659    1.4455    0.0000 C   0  0  0  0  0  0  0  0  0  0  0  0
   -2.6909    1.4455    0.0000 C   0  0  0  0  0  0  0  0  0  0  0  0
   -3.1034    0.7310    0.0000 O   0  0  0  0  0  0  0  0  0  0  0  0
   -2.6909    0.0165    0.0000 C   0  0  0  0  0  0  0  0  0  0  0  0
   -1.8659    0.0165    0.0000 C   0  0  0  0  0  0  0  0  0  0  0  0
   -1.4534   -0.6979    0.0000 C   0  0  0  0  0  0  0  0  0  0  0  0
   -0.6284   -0.6979    0.0000 N   0  0  0  0  0  0  0  0  0  0  0  0
   -0.1435   -1.3654    0.0000 N   0  0  0  0  0  0  0  0  0  0  0  0
    0.6411   -1.1104    0.0000 C   0  0  0  0  0  0  0  0  0  0  0  0
    0.6411   -0.2854    0.0000 N   0  0  0  0  0  0  0  0  0  0  0  0
   -0.1435   -0.0305    0.0000 C   0  0  0  0  0  0  0  0  0  0  0  0
   -0.3984    0.7541    0.0000 O   0  0  0  0  0  0  0  0  0  0  0  0
    1.3556    0.1271    0.0000 C   0  0  0  0  0  0  0  0  0  0  0  0
    2.0701   -0.2854    0.0000 C   0  0  0  0  0  0  0  0  0  0  0  0
    2.0701   -1.1104    0.0000 C   0  0  0  0  0  0  0  0  0  0  0  0
    1.3556   -1.5229    0.0000 C   0  0  0  0  0  0  0  0  0  0  0  0
   -1.8659   -1.4124    0.0000 C   0  0  0  0  0  0  0  0  0  0  0  0
   -1.4534   -2.1269    0.0000 F   0  0  0  0  0  0  0  0  0  0  0  0
   -2.6909   -1.4124    0.0000 C   0  0  0  0  0  0  0  0  0  0  0  0
   -3.1034   -0.6979    0.0000 C   0  0  0  0  0  0  0  0  0  0  0  0
   -3.9284   -0.6979    0.0000 C   0  0  0  0  0  0  0  0  0  0  0  0
   -4.3409    0.0165    0.0000 O   0  0  0  0  0  0  0  0  0  0  0  0
   -4.3409   -1.4124    0.0000 N   0  0  0  0  0  0  0  0  0  0  0  0
   -3.9284   -2.1269    0.0000 C   0  0  0  0  0  0  0  0  0  0  0  0
   -3.1079   -2.2131    0.0000 C   0  0  0  0  0  0  0  0  0  0  0  0
   -2.9364   -3.0201    0.0000 C   0  0  0  0  0  0  0  0  0  0  0  0
   -3.6509   -3.4326    0.0000 N   0  0  0  0  0  0  0  0  0  0  0  0
   -4.2640   -2.8806    0.0000 N   0  0  0  0  0  0  0  0  0  0  0  0
   -5.0710   -3.0521    0.0000 C   0  0  0  0  0  0  0  0  0  0  0  0
   -3.1034    2.1599    0.0000 C   0  0  0  0  0  0  0  0  0  0  0  0
   -3.9284    2.1599    0.0000 C   0  0  0  0  0  0  0  0  0  0  0  0
   -4.3409    2.8744    0.0000 C   0  0  0  0  0  0  0  0  0  0  0  0
   -3.9284    3.5889    0.0000 C   0  0  0  0  0  0  0  0  0  0  0  0
   -3.1034    3.5889    0.0000 C   0  0  0  0  0  0  0  0  0  0  0  0
   -2.6909    2.8744    0.0000 C   0  0  0  0  0  0  0  0  0  0  0  0
  1  2  1  0  0  0  0
  2  3  1  0  0  0  0
  3  4  1  0  0  0  0
  4  5  4  0  0  0  0
  5  6  4  0  0  0  0
  6  7  1  0  0  0  0
  7  8  4  0  0  0  0
  8  9  4  0  0  0  0
  9 10  4  0  0  0  0
 10 11  4  0  0  0  0
  7 11  4  0  0  0  0
 11 12  2  0  0  0  0
 10 13  1  0  0  0  0
 13 14  1  0  0  0  0
 14 15  1  0  0  0  0
 15 16  1  0  0  0  0
  9 16  1  0  0  0  0
  6 17  4  0  0  0  0
 17 18  1  0  0  0  0
 17 19  4  0  0  0  0
 19 20  4  0  0  0  0
  4 20  4  0  0  0  0
 20 21  1  0  0  0  0
 21 22  2  0  0  0  0
 21 23  1  0  0  0  0
 23 24  1  0  0  0  0
 24 25  4  0  0  0  0
 25 26  4  0  0  0  0
 26 27  4  0  0  0  0
 27 28  4  0  0  0  0
 24 28  4  0  0  0  0
 28 29  1  0  0  0  0
  2 30  1  0  0  0  0
 30 31  1  0  0  0  0
 31 32  1  0  0  0  0
 32 33  1  0  0  0  0
 33 34  1  0  0  0  0
 34 35  1  0  0  0  0
 30 35  1  0  0  0  0
M  END
> <IC50(uM)>
0.023

> <Outcome>
1.0

> <BindingDB ID>
1020555

> <BindingDB MonomerID>
490494

> <BindingDB Ligand Name>
2-[(1S)-1-cyclohexylethoxy]-5-fluoro-N-(1-methyl-1H-pyrazol-5-yl)-4-(3-oxo-5,6,7,8-tetrahydro[1,2,4]triazolo[4,3-a]pyridin-2(3H)-yl)benzamide::US10968216, Example 162

> <Curation/DataSource>
US Patent

> <Article DOI>
?

> <PMID>
?

> <Patent Number>
US10968216

> <Authors>
Gradl, SN; Nguyen, D; Eis, K; Gunther, J; Stellfeld, T; Janzer, A; Christian, S; Mueller, T; Sheikh, SE; Zhou, HJ; Zhao, C; Sykes, DB; Ferrara, SJ; Liu, K; Herbert, SA; Merz, C; Niehues, M; Nising, CF; Schafer, M; Zimmermann, K; Knablein, J; Thede, K; Faupel, T

> <Link to Ligand in BindingDB>
http://www.bindingdb.org/bind/chemsearch/marvin/MolStructure.jsp?monomerid=490494

> <Link to Ligand-Target Pair in BindingDB>
http://www.bindingdb.org/jsp/dbsearch/PrimarySearch_ki.jsp?energyterm=kJ/mole&tag=r21&monomerid=490494&enzyme=Dihydroorotate+dehydrogenase&column=ki&startPg=0&Increment=50&submit=Search

> <PubChem CID>
142335867

> <PubChem SID>
447117221

$$$$

  Mrv2115 07222212352D          

 32 35  0  0  0  0            999 V2000
    0.0000   -2.4750    0.0000 C   0  0  0  0  0  0  0  0  0  0  0  0
    0.0000   -1.6500    0.0000 O   0  0  0  0  0  0  0  0  0  0  0  0
    0.7145   -1.2375    0.0000 C   0  0  0  0  0  0  0  0  0  0  0  0
    0.7145   -0.4125    0.0000 C   0  0  0  0  0  0  0  0  0  0  0  0
    1.4289    0.0000    0.0000 C   0  0  0  0  0  0  0  0  0  0  0  0
    2.1434   -0.4125    0.0000 C   0  0  0  0  0  0  0  0  0  0  0  0
    2.8579    0.0000    0.0000 N   0  0  0  0  0  0  0  0  0  0  0  0
    3.5724   -0.4125    0.0000 C   0  0  0  0  0  0  0  0  0  0  0  0
    4.2868   -0.0000    0.0000 C   0  0  0  0  0  0  0  0  0  0  0  0
    5.0013   -0.4125    0.0000 O   0  0  0  0  0  0  0  0  0  0  0  0
    4.2868    0.8250    0.0000 N   0  0  0  0  0  0  0  0  0  0  0  0
    5.0013    1.2375    0.0000 C   0  0  0  0  0  0  0  0  0  0  0  0
    5.0013    2.0625    0.0000 C   0  0  0  0  0  0  0  0  0  0  0  0
    4.2868    2.4750    0.0000 F   0  0  0  0  0  0  0  0  0  0  0  0
    5.7158    2.4750    0.0000 C   0  0  0  0  0  0  0  0  0  0  0  0
    6.4302    2.0625    0.0000 C   0  0  0  0  0  0  0  0  0  0  0  0
    7.1447    2.4750    0.0000 C   0  0  0  0  0  0  0  0  0  0  0  0
    7.1447    3.3000    0.0000 C   0  0  0  0  0  0  0  0  0  0  0  0
    7.8592    3.7125    0.0000 C   0  0  0  0  0  0  0  0  0  0  0  0
    8.5737    3.3000    0.0000 C   0  0  0  0  0  0  0  0  0  0  0  0
    8.5737    2.4750    0.0000 C   0  0  0  0  0  0  0  0  0  0  0  0
    9.2881    2.0625    0.0000 F   0  0  0  0  0  0  0  0  0  0  0  0
    7.8592    2.0625    0.0000 C   0  0  0  0  0  0  0  0  0  0  0  0
    6.4302    1.2375    0.0000 C   0  0  0  0  0  0  0  0  0  0  0  0
    5.7158    0.8250    0.0000 C   0  0  0  0  0  0  0  0  0  0  0  0
    5.7158   -0.0000    0.0000 F   0  0  0  0  0  0  0  0  0  0  0  0
    3.5724   -1.2375    0.0000 C   0  0  0  0  0  0  0  0  0  0  0  0
    4.2868   -1.6500    0.0000 C   0  0  0  0  0  0  0  0  0  0  0  0
    2.8579   -1.6500    0.0000 C   0  0  0  0  0  0  0  0  0  0  0  0
    2.8579   -2.4750    0.0000 O   0  0  0  0  0  0  0  0  0  0  0  0
    2.1434   -1.2375    0.0000 C   0  0  0  0  0  0  0  0  0  0  0  0
    1.4289   -1.6500    0.0000 C   0  0  0  0  0  0  0  0  0  0  0  0
  1  2  1  0  0  0  0
  2  3  1  0  0  0  0
  3  4  4  0  0  0  0
  4  5  4  0  0  0  0
  5  6  4  0  0  0  0
  6  7  4  0  0  0  0
  7  8  4  0  0  0  0
  8  9  1  0  0  0  0
  9 10  2  0  0  0  0
  9 11  1  0  0  0  0
 11 12  1  0  0  0  0
 12 13  4  0  0  0  0
 13 14  1  0  0  0  0
 13 15  4  0  0  0  0
 15 16  4  0  0  0  0
 16 17  1  0  0  0  0
 17 18  4  0  0  0  0
 18 19  4  0  0  0  0
 19 20  4  0  0  0  0
 20 21  4  0  0  0  0
 21 22  1  0  0  0  0
 21 23  4  0  0  0  0
 17 23  4  0  0  0  0
 16 24  4  0  0  0  0
 24 25  4  0  0  0  0
 12 25  4  0  0  0  0
 25 26  1  0  0  0  0
  8 27  4  0  0  0  0
 27 28  1  0  0  0  0
 27 29  4  0  0  0  0
 29 30  1  0  0  0  0
 29 31  4  0  0  0  0
  6 31  4  0  0  0  0
 31 32  4  0  0  0  0
  3 32  4  0  0  0  0
M  END
> <IC50(uM)>
0.94

> <Outcome>
1.0

> <BindingDB ID>
50107530

> <BindingDB MonomerID>
50020687

> <BindingDB Ligand Name>
CHEMBL3290836

> <Curation/DataSource>
ChEMBL

> <Article DOI>
10.1016/j.ejmech.2014.05.064

> <PMID>
24929289

> <Patent Number>
?

> <Authors>
Vyas, VK; Variya, B; Ghate, MD

> <Link to Ligand in BindingDB>
http://www.bindingdb.org/bind/chemsearch/marvin/MolStructure.jsp?monomerid=50020687

> <Link to Ligand-Target Pair in BindingDB>
http://www.bindingdb.org/jsp/dbsearch/PrimarySearch_ki.jsp?energyterm=kJ/mole&tag=r21&monomerid=50020687&enzyme=Dihydroorotate+dehydrogenase&column=ki&startPg=0&Increment=50&submit=Search

> <PubChem CID>
90644862

> <PubChem SID>
242042285

$$$$

  Mrv2115 07222212352D          

 26 28  0  0  0  0            999 V2000
   -2.8579    2.4750    0.0000 C   0  0  0  0  0  0  0  0  0  0  0  0
   -2.1434    2.0625    0.0000 C   0  0  0  0  0  0  0  0  0  0  0  0
   -1.4289    2.4750    0.0000 C   0  0  0  0  0  0  0  0  0  0  0  0
   -0.7145    2.0625    0.0000 C   0  0  0  0  0  0  0  0  0  0  0  0
   -0.7145    1.2375    0.0000 C   0  0  0  0  0  0  0  0  0  0  0  0
    0.0000    0.8250    0.0000 C   0  0  0  0  0  0  0  0  0  0  0  0
    0.0000    0.0000    0.0000 N   0  0  0  0  0  0  0  0  0  0  0  0
    0.7145   -0.4125    0.0000 N   0  0  0  0  0  0  0  0  0  0  0  0
    1.4289   -0.0000    0.0000 C   0  0  0  0  0  0  0  0  0  0  0  0
    0.7145   -1.2375    0.0000 C   0  0  0  0  0  0  0  0  0  0  0  0
    1.3819   -1.7224    0.0000 N   0  0  0  0  0  0  0  0  0  0  0  0
    1.1270   -2.5070    0.0000 C   0  0  0  0  0  0  0  0  0  0  0  0
    1.6119   -3.1745    0.0000 C   0  0  0  0  0  0  0  0  0  0  0  0
    2.4324   -3.0882    0.0000 C   0  0  0  0  0  0  0  0  0  0  0  0
    2.9173   -3.7557    0.0000 C   0  0  0  0  0  0  0  0  0  0  0  0
    2.5817   -4.5094    0.0000 C   0  0  0  0  0  0  0  0  0  0  0  0
    1.7613   -4.5956    0.0000 C   0  0  0  0  0  0  0  0  0  0  0  0
    1.2763   -3.9282    0.0000 C   0  0  0  0  0  0  0  0  0  0  0  0
    0.3020   -2.5070    0.0000 C   0  0  0  0  0  0  0  0  0  0  0  0
   -0.1830   -3.1745    0.0000 C   0  0  0  0  0  0  0  0  0  0  0  0
    0.0470   -1.7224    0.0000 S   0  0  0  0  0  0  0  0  0  0  0  0
   -1.4289    0.8250    0.0000 C   0  0  0  0  0  0  0  0  0  0  0  0
   -1.4289    0.0000    0.0000 C   0  0  0  0  0  0  0  0  0  0  0  0
   -2.1434   -0.4125    0.0000 O   0  0  0  0  0  0  0  0  0  0  0  0
   -0.7145   -0.4125    0.0000 O   0  0  0  0  0  0  0  0  0  0  0  0
   -2.1434    1.2375    0.0000 C   0  0  0  0  0  0  0  0  0  0  0  0
  1  2  1  0  0  0  0
  2  3  4  0  0  0  0
  3  4  4  0  0  0  0
  4  5  4  0  0  0  0
  5  6  1  0  0  0  0
  6  7  2  0  0  0  0
  7  8  1  0  0  0  0
  8  9  1  0  0  0  0
  8 10  1  0  0  0  0
 10 11  4  0  0  0  0
 11 12  4  0  0  0  0
 12 13  1  0  0  0  0
 13 14  4  0  0  0  0
 14 15  4  0  0  0  0
 15 16  4  0  0  0  0
 16 17  4  0  0  0  0
 17 18  4  0  0  0  0
 13 18  4  0  0  0  0
 12 19  4  0  0  0  0
 19 20  1  0  0  0  0
 19 21  4  0  0  0  0
 10 21  4  0  0  0  0
  5 22  4  0  0  0  0
 22 23  1  0  0  0  0
 23 24  2  0  0  0  0
 23 25  1  0  0  0  0
 22 26  4  0  0  0  0
  2 26  4  0  0  0  0
M  END
> <IC50(uM)>
0.0136

> <Outcome>
1.0

> <BindingDB ID>
1001120

> <BindingDB MonomerID>
482806

> <BindingDB Ligand Name>
US10919869, No.  11

> <Curation/DataSource>
US Patent

> <Article DOI>
?

> <PMID>
?

> <Patent Number>
US10919869

> <Authors>
Li, H; Xu, Y; Wang, R; Zhao, Z; Song, W; Xu, L

> <Link to Ligand in BindingDB>
http://www.bindingdb.org/bind/chemsearch/marvin/MolStructure.jsp?monomerid=482806

> <Link to Ligand-Target Pair in BindingDB>
http://www.bindingdb.org/jsp/dbsearch/PrimarySearch_ki.jsp?energyterm=kJ/mole&tag=r21&monomerid=482806&enzyme=Dihydroorotate+dehydrogenase&column=ki&startPg=0&Increment=50&submit=Search

> <PubChem CID>
132157904

> <PubChem SID>
443551947

$$$$

  Mrv2115 07222212352D          

 26 29  0  0  0  0            999 V2000
    5.4957    4.8229    0.0000 C   0  0  0  0  0  0  0  0  0  0  0  0
    6.2102    4.4104    0.0000 C   0  0  0  0  0  0  0  0  0  0  0  0
    6.9246    4.8229    0.0000 C   0  0  0  0  0  0  0  0  0  0  0  0
    7.6391    4.4104    0.0000 C   0  0  0  0  0  0  0  0  0  0  0  0
    7.6391    3.5854    0.0000 C   0  0  0  0  0  0  0  0  0  0  0  0
    6.9246    3.1729    0.0000 C   0  0  0  0  0  0  0  0  0  0  0  0
    6.2102    3.5854    0.0000 C   0  0  0  0  0  0  0  0  0  0  0  0
    5.4957    3.1729    0.0000 C   0  0  0  0  0  0  0  0  0  0  0  0
    5.4957    2.3479    0.0000 C   0  0  0  0  0  0  0  0  0  0  0  0
    4.7812    1.9354    0.0000 C   0  0  0  0  0  0  0  0  0  0  0  0
    4.0668    2.3479    0.0000 C   0  0  0  0  0  0  0  0  0  0  0  0
    3.3523    1.9354    0.0000 C   0  0  0  0  0  0  0  0  0  0  0  0
    3.3523    1.1104    0.0000 C   0  0  0  0  0  0  0  0  0  0  0  0
    2.6378    0.6979    0.0000 C   0  0  0  0  0  0  0  0  0  0  0  0
    2.6378   -0.1271    0.0000 C   0  0  0  0  0  0  0  0  0  0  0  0
    1.9233   -0.5396    0.0000 O   0  0  0  0  0  0  0  0  0  0  0  0
    3.3523   -0.5396    0.0000 O   0  0  0  0  0  0  0  0  0  0  0  0
    1.9233    1.1104    0.0000 C   0  0  0  0  0  0  0  0  0  0  0  0
    1.9233    1.9354    0.0000 C   0  0  0  0  0  0  0  0  0  0  0  0
    2.6378    2.3479    0.0000 C   0  0  0  0  0  0  0  0  0  0  0  0
    1.1387    2.1904    0.0000 N   0  0  0  0  0  0  0  0  0  0  0  0
    0.6538    1.5229    0.0000 N   0  0  0  0  0  0  0  0  0  0  0  0
    1.1387    0.8555    0.0000 N   0  0  0  0  0  0  0  0  0  0  0  0
    0.8838    0.0709    0.0000 C   0  0  0  0  0  0  0  0  0  0  0  0
    4.0668    3.1729    0.0000 C   0  0  0  0  0  0  0  0  0  0  0  0
    4.7812    3.5854    0.0000 C   0  0  0  0  0  0  0  0  0  0  0  0
  1  2  1  0  0  0  0
  2  3  4  0  0  0  0
  3  4  4  0  0  0  0
  4  5  4  0  0  0  0
  5  6  4  0  0  0  0
  6  7  4  0  0  0  0
  2  7  4  0  0  0  0
  7  8  1  0  0  0  0
  8  9  4  0  0  0  0
  9 10  4  0  0  0  0
 10 11  4  0  0  0  0
 11 12  1  0  0  0  0
 12 13  4  0  0  0  0
 13 14  4  0  0  0  0
 14 15  1  0  0  0  0
 15 16  2  0  0  0  0
 15 17  1  0  0  0  0
 14 18  4  0  0  0  0
 18 19  4  0  0  0  0
 19 20  4  0  0  0  0
 12 20  4  0  0  0  0
 19 21  4  0  0  0  0
 21 22  4  0  0  0  0
 22 23  4  0  0  0  0
 18 23  4  0  0  0  0
 23 24  1  0  0  0  0
 11 25  4  0  0  0  0
 25 26  4  0  0  0  0
  8 26  4  0  0  0  0
M  END
> <IC50(uM)>
0.1

> <Outcome>
1.0

> <BindingDB ID>
1100158

> <BindingDB MonomerID>
520617

> <BindingDB Ligand Name>
1-methyl-5-(2'-methyl-[1,1'-biphenyl]-4-yl)-1H-benzo[d][1,2,3]triazole-7- carboxylic acid;::US11147801, Compound 1

> <Curation/DataSource>
US Patent

> <Article DOI>
?

> <PMID>
?

> <Patent Number>
US11147801

> <Authors>
Nellore, K; Hosahalli, S

> <Link to Ligand in BindingDB>
http://www.bindingdb.org/bind/chemsearch/marvin/MolStructure.jsp?monomerid=520617

> <Link to Ligand-Target Pair in BindingDB>
http://www.bindingdb.org/jsp/dbsearch/PrimarySearch_ki.jsp?energyterm=kJ/mole&tag=r21&monomerid=520617&enzyme=Dihydroorotate+dehydrogenase&column=ki&startPg=0&Increment=50&submit=Search

> <PubChem CID>
?

> <PubChem SID>
?

$$$$

  Mrv2115 07222212352D          

 35 38  0  0  0  0            999 V2000
   -5.1659    1.4455    0.0000 C   0  0  0  0  0  0  0  0  0  0  0  0
   -4.3409    1.4455    0.0000 C   0  0  0  0  0  0  0  0  0  0  0  0
   -3.9284    2.1599    0.0000 C   0  0  0  0  0  0  0  0  0  0  0  0
   -3.1034    2.1599    0.0000 C   0  0  0  0  0  0  0  0  0  0  0  0
   -2.6909    2.8744    0.0000 F   0  0  0  0  0  0  0  0  0  0  0  0
   -2.6909    1.4455    0.0000 C   0  0  0  0  0  0  0  0  0  0  0  0
   -3.1034    0.7310    0.0000 C   0  0  0  0  0  0  0  0  0  0  0  0
   -3.9284    0.7310    0.0000 C   0  0  0  0  0  0  0  0  0  0  0  0
   -4.3409    0.0165    0.0000 N   0  0  0  0  0  0  0  0  0  0  0  0
   -3.9284   -0.6979    0.0000 C   0  0  0  0  0  0  0  0  0  0  0  0
   -4.3409   -1.4124    0.0000 O   0  0  0  0  0  0  0  0  0  0  0  0
   -3.1034   -0.6979    0.0000 C   0  0  0  0  0  0  0  0  0  0  0  0
   -2.6909    0.0165    0.0000 C   0  0  0  0  0  0  0  0  0  0  0  0
   -1.8659    0.0165    0.0000 C   0  0  0  0  0  0  0  0  0  0  0  0
   -1.4534    0.7310    0.0000 F   0  0  0  0  0  0  0  0  0  0  0  0
   -1.4534   -0.6979    0.0000 C   0  0  0  0  0  0  0  0  0  0  0  0
   -0.6284   -0.6979    0.0000 N   0  0  0  0  0  0  0  0  0  0  0  0
   -0.1435   -1.3654    0.0000 N   0  0  0  0  0  0  0  0  0  0  0  0
    0.6411   -1.1104    0.0000 C   0  0  0  0  0  0  0  0  0  0  0  0
    0.6411   -0.2854    0.0000 N   0  0  0  0  0  0  0  0  0  0  0  0
   -0.1435   -0.0305    0.0000 C   0  0  0  0  0  0  0  0  0  0  0  0
   -0.3984    0.7541    0.0000 O   0  0  0  0  0  0  0  0  0  0  0  0
    1.3556    0.1271    0.0000 C   0  0  0  0  0  0  0  0  0  0  0  0
    2.0701   -0.2854    0.0000 C   0  0  0  0  0  0  0  0  0  0  0  0
    2.0701   -1.1104    0.0000 O   0  0  0  0  0  0  0  0  0  0  0  0
    1.3556   -1.5229    0.0000 C   0  0  0  0  0  0  0  0  0  0  0  0
   -1.8659   -1.4124    0.0000 C   0  0  0  0  0  0  0  0  0  0  0  0
   -2.6909   -1.4124    0.0000 C   0  0  0  0  0  0  0  0  0  0  0  0
   -3.1034   -2.1269    0.0000 O   0  0  0  0  0  0  0  0  0  0  0  0
   -2.6909   -2.8414    0.0000 C   0  0  0  0  0  0  0  0  0  0  0  0
   -1.8659   -2.8414    0.0000 C   0  0  0  0  0  0  0  0  0  0  0  0
   -3.1034   -3.5558    0.0000 C   0  0  0  0  0  0  0  0  0  0  0  0
   -3.8179   -3.1433    0.0000 F   0  0  0  0  0  0  0  0  0  0  0  0
   -2.3890   -3.9683    0.0000 F   0  0  0  0  0  0  0  0  0  0  0  0
   -3.5159   -4.2703    0.0000 F   0  0  0  0  0  0  0  0  0  0  0  0
  1  2  1  0  0  0  0
  2  3  4  0  0  0  0
  3  4  4  0  0  0  0
  4  5  1  0  0  0  0
  4  6  4  0  0  0  0
  6  7  4  0  0  0  0
  7  8  4  0  0  0  0
  2  8  4  0  0  0  0
  8  9  1  0  0  0  0
  9 10  1  0  0  0  0
 10 11  2  0  0  0  0
 10 12  1  0  0  0  0
 12 13  4  0  0  0  0
 13 14  4  0  0  0  0
 14 15  1  0  0  0  0
 14 16  4  0  0  0  0
 16 17  1  0  0  0  0
 17 18  4  0  0  0  0
 18 19  4  0  0  0  0
 19 20  4  0  0  0  0
 20 21  4  0  0  0  0
 17 21  4  0  0  0  0
 21 22  2  0  0  0  0
 20 23  1  0  0  0  0
 23 24  1  0  0  0  0
 24 25  1  0  0  0  0
 25 26  1  0  0  0  0
 19 26  1  0  0  0  0
 16 27  4  0  0  0  0
 27 28  4  0  0  0  0
 12 28  4  0  0  0  0
 28 29  1  0  0  0  0
 29 30  1  0  0  0  0
 30 31  1  0  0  0  0
 30 32  1  0  0  0  0
 32 33  1  0  0  0  0
 32 34  1  0  0  0  0
 32 35  1  0  0  0  0
M  END
> <IC50(uM)>
0.06

> <Outcome>
1.0

> <BindingDB ID>
1020583

> <BindingDB MonomerID>
490522

> <BindingDB Ligand Name>
5-fluoro-N-(4-fluoro-2-methylphenyl)-4-(3-oxo-5,6-dihydro-3H-[1,2,4]triazolo[3,4-c][1,4]oxazin-2(8H)-yl)-2-{[(2S)-1,1,1-trifluoropropan-2-yl]oxy}benzamide::US10968216, Example 190

> <Curation/DataSource>
US Patent

> <Article DOI>
?

> <PMID>
?

> <Patent Number>
US10968216

> <Authors>
Gradl, SN; Nguyen, D; Eis, K; Gunther, J; Stellfeld, T; Janzer, A; Christian, S; Mueller, T; Sheikh, SE; Zhou, HJ; Zhao, C; Sykes, DB; Ferrara, SJ; Liu, K; Herbert, SA; Merz, C; Niehues, M; Nising, CF; Schafer, M; Zimmermann, K; Knablein, J; Thede, K; Faupel, T

> <Link to Ligand in BindingDB>
http://www.bindingdb.org/bind/chemsearch/marvin/MolStructure.jsp?monomerid=490522

> <Link to Ligand-Target Pair in BindingDB>
http://www.bindingdb.org/jsp/dbsearch/PrimarySearch_ki.jsp?energyterm=kJ/mole&tag=r21&monomerid=490522&enzyme=Dihydroorotate+dehydrogenase&column=ki&startPg=0&Increment=50&submit=Search

> <PubChem CID>
134473983

> <PubChem SID>
447117248

$$$$

  Mrv2115 07222212352D          

 33 37  0  0  0  0            999 V2000
   -0.1712   -0.6979    0.0000 C   0  0  0  0  0  0  0  0  0  0  0  0
    0.6538   -0.6979    0.0000 C   0  0  0  0  0  0  0  0  0  0  0  0
    1.1387   -0.0305    0.0000 N   0  0  0  0  0  0  0  0  0  0  0  0
    1.9233   -0.2854    0.0000 C   0  0  0  0  0  0  0  0  0  0  0  0
    2.6378    0.1271    0.0000 C   0  0  0  0  0  0  0  0  0  0  0  0
    2.6378    0.9521    0.0000 C   0  0  0  0  0  0  0  0  0  0  0  0
    3.3523    1.3646    0.0000 O   0  0  0  0  0  0  0  0  0  0  0  0
    1.9233    1.3646    0.0000 O   0  0  0  0  0  0  0  0  0  0  0  0
    3.3523   -0.2854    0.0000 C   0  0  0  0  0  0  0  0  0  0  0  0
    3.3523   -1.1104    0.0000 C   0  0  0  0  0  0  0  0  0  0  0  0
    4.0668   -1.5229    0.0000 C   0  0  0  0  0  0  0  0  0  0  0  0
    4.7812   -1.1104    0.0000 C   0  0  0  0  0  0  0  0  0  0  0  0
    5.4957   -1.5229    0.0000 C   0  0  0  0  0  0  0  0  0  0  0  0
    5.4957   -2.3479    0.0000 C   0  0  0  0  0  0  0  0  0  0  0  0
    6.2102   -2.7604    0.0000 C   0  0  0  0  0  0  0  0  0  0  0  0
    6.9246   -2.3479    0.0000 C   0  0  0  0  0  0  0  0  0  0  0  0
    7.6391   -2.7604    0.0000 C   0  0  0  0  0  0  0  0  0  0  0  0
    7.6391   -3.5854    0.0000 C   0  0  0  0  0  0  0  0  0  0  0  0
    6.9246   -3.9979    0.0000 C   0  0  0  0  0  0  0  0  0  0  0  0
    6.2102   -3.5854    0.0000 C   0  0  0  0  0  0  0  0  0  0  0  0
    5.4957   -3.9979    0.0000 O   0  0  0  0  0  0  0  0  0  0  0  0
    5.4957   -4.8229    0.0000 C   0  0  0  0  0  0  0  0  0  0  0  0
    4.7812   -5.2354    0.0000 C   0  0  0  0  0  0  0  0  0  0  0  0
    4.7812   -6.0604    0.0000 C   0  0  0  0  0  0  0  0  0  0  0  0
    4.0668   -6.4729    0.0000 C   0  0  0  0  0  0  0  0  0  0  0  0
    3.3523   -6.0604    0.0000 C   0  0  0  0  0  0  0  0  0  0  0  0
    3.3523   -5.2354    0.0000 C   0  0  0  0  0  0  0  0  0  0  0  0
    4.0668   -4.8229    0.0000 C   0  0  0  0  0  0  0  0  0  0  0  0
    4.7812   -2.7604    0.0000 C   0  0  0  0  0  0  0  0  0  0  0  0
    4.0668   -2.3479    0.0000 C   0  0  0  0  0  0  0  0  0  0  0  0
    2.6378   -1.5229    0.0000 C   0  0  0  0  0  0  0  0  0  0  0  0
    1.9233   -1.1104    0.0000 C   0  0  0  0  0  0  0  0  0  0  0  0
    1.1387   -1.3654    0.0000 N   0  0  0  0  0  0  0  0  0  0  0  0
  1  2  1  0  0  0  0
  2  3  4  0  0  0  0
  3  4  4  0  0  0  0
  4  5  4  0  0  0  0
  5  6  1  0  0  0  0
  6  7  2  0  0  0  0
  6  8  1  0  0  0  0
  5  9  4  0  0  0  0
  9 10  4  0  0  0  0
 10 11  1  0  0  0  0
 11 12  4  0  0  0  0
 12 13  4  0  0  0  0
 13 14  4  0  0  0  0
 14 15  1  0  0  0  0
 15 16  4  0  0  0  0
 16 17  4  0  0  0  0
 17 18  4  0  0  0  0
 18 19  4  0  0  0  0
 19 20  4  0  0  0  0
 15 20  4  0  0  0  0
 20 21  1  0  0  0  0
 21 22  1  0  0  0  0
 22 23  1  0  0  0  0
 23 24  4  0  0  0  0
 24 25  4  0  0  0  0
 25 26  4  0  0  0  0
 26 27  4  0  0  0  0
 27 28  4  0  0  0  0
 23 28  4  0  0  0  0
 14 29  4  0  0  0  0
 29 30  4  0  0  0  0
 11 30  4  0  0  0  0
 10 31  4  0  0  0  0
 31 32  4  0  0  0  0
  4 32  4  0  0  0  0
 32 33  4  0  0  0  0
  2 33  4  0  0  0  0
M  STY  1   1 DAT
M  SAL   1  1  33
M  SDT   1 MRV_IMPLICIT_H                                        
M  SDD   1     0.5304   -0.4125    DR    ALL  0       0  
M  SED   1 IMPL_H1
M  END
> <IC50(uM)>
0.055

> <Outcome>
1.0

> <BindingDB ID>
1045588

> <BindingDB MonomerID>
501646

> <BindingDB Ligand Name>
US11028054, Example 17

> <Curation/DataSource>
US Patent

> <Article DOI>
?

> <PMID>
?

> <Patent Number>
US11028054

> <Authors>
Thunuguntla, SS; Hosahalli, S; Panigrahi, SK; Schwarz, M; Arit, M

> <Link to Ligand in BindingDB>
http://www.bindingdb.org/bind/chemsearch/marvin/MolStructure.jsp?monomerid=501646

> <Link to Ligand-Target Pair in BindingDB>
http://www.bindingdb.org/jsp/dbsearch/PrimarySearch_ki.jsp?energyterm=kJ/mole&tag=r21&monomerid=501646&enzyme=Dihydroorotate+dehydrogenase&column=ki&startPg=0&Increment=50&submit=Search

> <PubChem CID>
?

> <PubChem SID>
?

$$$$

  Mrv2115 07222212352D          

 35 38  0  0  0  0            999 V2000
   -3.1034    2.1599    0.0000 C   0  0  0  0  0  0  0  0  0  0  0  0
   -2.6909    1.4455    0.0000 C   0  0  0  0  0  0  0  0  0  0  0  0
   -3.1034    0.7310    0.0000 O   0  0  0  0  0  0  0  0  0  0  0  0
   -2.6909    0.0165    0.0000 C   0  0  0  0  0  0  0  0  0  0  0  0
   -1.8659    0.0165    0.0000 C   0  0  0  0  0  0  0  0  0  0  0  0
   -1.4534   -0.6979    0.0000 C   0  0  0  0  0  0  0  0  0  0  0  0
   -0.6284   -0.6979    0.0000 N   0  0  0  0  0  0  0  0  0  0  0  0
   -0.1435   -1.3654    0.0000 N   0  0  0  0  0  0  0  0  0  0  0  0
    0.6411   -1.1104    0.0000 C   0  0  0  0  0  0  0  0  0  0  0  0
    0.6411   -0.2854    0.0000 N   0  0  0  0  0  0  0  0  0  0  0  0
   -0.1435   -0.0305    0.0000 C   0  0  0  0  0  0  0  0  0  0  0  0
   -0.3984    0.7541    0.0000 O   0  0  0  0  0  0  0  0  0  0  0  0
    1.3556    0.1271    0.0000 C   0  0  0  0  0  0  0  0  0  0  0  0
    2.0701   -0.2854    0.0000 C   0  0  0  0  0  0  0  0  0  0  0  0
    2.0701   -1.1104    0.0000 O   0  0  0  0  0  0  0  0  0  0  0  0
    1.3556   -1.5229    0.0000 C   0  0  0  0  0  0  0  0  0  0  0  0
   -1.8659   -1.4124    0.0000 C   0  0  0  0  0  0  0  0  0  0  0  0
   -1.4534   -2.1269    0.0000 F   0  0  0  0  0  0  0  0  0  0  0  0
   -2.6909   -1.4124    0.0000 C   0  0  0  0  0  0  0  0  0  0  0  0
   -3.1034   -0.6979    0.0000 C   0  0  0  0  0  0  0  0  0  0  0  0
   -3.9284   -0.6979    0.0000 C   0  0  0  0  0  0  0  0  0  0  0  0
   -4.3409    0.0165    0.0000 O   0  0  0  0  0  0  0  0  0  0  0  0
   -4.3409   -1.4124    0.0000 N   0  0  0  0  0  0  0  0  0  0  0  0
   -5.1659   -1.4124    0.0000 C   0  0  0  0  0  0  0  0  0  0  0  0
   -5.5784   -2.1269    0.0000 C   0  0  0  0  0  0  0  0  0  0  0  0
   -5.1659   -2.8414    0.0000 Cl  0  0  0  0  0  0  0  0  0  0  0  0
   -6.4034   -2.1269    0.0000 C   0  0  0  0  0  0  0  0  0  0  0  0
   -6.8159   -1.4124    0.0000 C   0  0  0  0  0  0  0  0  0  0  0  0
   -6.4034   -0.6979    0.0000 C   0  0  0  0  0  0  0  0  0  0  0  0
   -5.5784   -0.6979    0.0000 C   0  0  0  0  0  0  0  0  0  0  0  0
   -5.1659    0.0165    0.0000 Cl  0  0  0  0  0  0  0  0  0  0  0  0
   -1.8659    1.4455    0.0000 C   0  0  0  0  0  0  0  0  0  0  0  0
   -1.8659    0.6205    0.0000 F   0  0  0  0  0  0  0  0  0  0  0  0
   -1.8659    2.2705    0.0000 F   0  0  0  0  0  0  0  0  0  0  0  0
   -1.0409    1.4455    0.0000 F   0  0  0  0  0  0  0  0  0  0  0  0
  1  2  1  0  0  0  0
  2  3  1  0  0  0  0
  3  4  1  0  0  0  0
  4  5  4  0  0  0  0
  5  6  4  0  0  0  0
  6  7  1  0  0  0  0
  7  8  4  0  0  0  0
  8  9  4  0  0  0  0
  9 10  4  0  0  0  0
 10 11  4  0  0  0  0
  7 11  4  0  0  0  0
 11 12  2  0  0  0  0
 10 13  1  0  0  0  0
 13 14  1  0  0  0  0
 14 15  1  0  0  0  0
 15 16  1  0  0  0  0
  9 16  1  0  0  0  0
  6 17  4  0  0  0  0
 17 18  1  0  0  0  0
 17 19  4  0  0  0  0
 19 20  4  0  0  0  0
  4 20  4  0  0  0  0
 20 21  1  0  0  0  0
 21 22  2  0  0  0  0
 21 23  1  0  0  0  0
 23 24  1  0  0  0  0
 24 25  4  0  0  0  0
 25 26  1  0  0  0  0
 25 27  4  0  0  0  0
 27 28  4  0  0  0  0
 28 29  4  0  0  0  0
 29 30  4  0  0  0  0
 24 30  4  0  0  0  0
 30 31  1  0  0  0  0
  2 32  1  0  0  0  0
 32 33  1  0  0  0  0
 32 34  1  0  0  0  0
 32 35  1  0  0  0  0
M  END
> <IC50(uM)>
0.0053

> <Outcome>
1.0

> <BindingDB ID>
1020579

> <BindingDB MonomerID>
490518

> <BindingDB Ligand Name>
N-(2,6-dichlorophenyl)-5-fluoro-4-(3-oxo-5,6-dihydro-3H-[1,2,4]triazolo[3,4-c][1,4]oxazin-2(8H)-yl)-2-{[(2S)-1,1,1-trifluoropropan-2-yl]oxy}benzamide::US10968216, Example 186

> <Curation/DataSource>
US Patent

> <Article DOI>
?

> <PMID>
?

> <Patent Number>
US10968216

> <Authors>
Gradl, SN; Nguyen, D; Eis, K; Gunther, J; Stellfeld, T; Janzer, A; Christian, S; Mueller, T; Sheikh, SE; Zhou, HJ; Zhao, C; Sykes, DB; Ferrara, SJ; Liu, K; Herbert, SA; Merz, C; Niehues, M; Nising, CF; Schafer, M; Zimmermann, K; Knablein, J; Thede, K; Faupel, T

> <Link to Ligand in BindingDB>
http://www.bindingdb.org/bind/chemsearch/marvin/MolStructure.jsp?monomerid=490518

> <Link to Ligand-Target Pair in BindingDB>
http://www.bindingdb.org/jsp/dbsearch/PrimarySearch_ki.jsp?energyterm=kJ/mole&tag=r21&monomerid=490518&enzyme=Dihydroorotate+dehydrogenase&column=ki&startPg=0&Increment=50&submit=Search

> <PubChem CID>
134474152

> <PubChem SID>
447117244

$$$$

  Mrv2115 07222212352D          

 38 42  0  0  0  0            999 V2000
   -0.6284    2.1599    0.0000 C   0  0  0  0  0  0  0  0  0  0  0  0
   -1.4534    2.1599    0.0000 C   0  0  0  0  0  0  0  0  0  0  0  0
   -1.8659    1.4455    0.0000 C   0  0  0  0  0  0  0  0  0  0  0  0
   -2.6909    1.4455    0.0000 C   0  0  0  0  0  0  0  0  0  0  0  0
   -3.1034    2.1599    0.0000 C   0  0  0  0  0  0  0  0  0  0  0  0
   -3.1034    0.7310    0.0000 O   0  0  0  0  0  0  0  0  0  0  0  0
   -2.6909    0.0165    0.0000 C   0  0  0  0  0  0  0  0  0  0  0  0
   -1.8659    0.0165    0.0000 C   0  0  0  0  0  0  0  0  0  0  0  0
   -1.4534   -0.6979    0.0000 C   0  0  0  0  0  0  0  0  0  0  0  0
   -0.6284   -0.6979    0.0000 N   0  0  0  0  0  0  0  0  0  0  0  0
   -0.1435   -1.3654    0.0000 N   0  0  0  0  0  0  0  0  0  0  0  0
    0.6411   -1.1104    0.0000 C   0  0  0  0  0  0  0  0  0  0  0  0
    0.6411   -0.2854    0.0000 N   0  0  0  0  0  0  0  0  0  0  0  0
   -0.1435   -0.0305    0.0000 C   0  0  0  0  0  0  0  0  0  0  0  0
   -0.3984    0.7541    0.0000 O   0  0  0  0  0  0  0  0  0  0  0  0
    1.3556    0.1271    0.0000 C   0  0  0  0  0  0  0  0  0  0  0  0
    2.0701   -0.2854    0.0000 C   0  0  0  0  0  0  0  0  0  0  0  0
    2.0701   -1.1104    0.0000 C   0  0  0  0  0  0  0  0  0  0  0  0
    1.3556   -1.5229    0.0000 C   0  0  0  0  0  0  0  0  0  0  0  0
   -1.8659   -1.4124    0.0000 C   0  0  0  0  0  0  0  0  0  0  0  0
   -1.4534   -2.1269    0.0000 F   0  0  0  0  0  0  0  0  0  0  0  0
   -2.6909   -1.4124    0.0000 C   0  0  0  0  0  0  0  0  0  0  0  0
   -3.1034   -0.6979    0.0000 C   0  0  0  0  0  0  0  0  0  0  0  0
   -3.9284   -0.6979    0.0000 C   0  0  0  0  0  0  0  0  0  0  0  0
   -4.3409    0.0165    0.0000 O   0  0  0  0  0  0  0  0  0  0  0  0
   -4.3409   -1.4124    0.0000 N   0  0  0  0  0  0  0  0  0  0  0  0
   -3.9284   -2.1269    0.0000 C   0  0  0  0  0  0  0  0  0  0  0  0
   -3.1034   -2.1269    0.0000 C   0  0  0  0  0  0  0  0  0  0  0  0
   -2.6909   -2.8414    0.0000 C   0  0  0  0  0  0  0  0  0  0  0  0
   -3.1034   -3.5558    0.0000 N   0  0  0  0  0  0  0  0  0  0  0  0
   -2.6909   -4.2703    0.0000 C   0  0  0  0  0  0  0  0  0  0  0  0
   -1.8659   -4.2703    0.0000 C   0  0  0  0  0  0  0  0  0  0  0  0
   -1.4534   -4.9848    0.0000 N   0  0  0  0  0  0  0  0  0  0  0  0
   -1.8659   -5.6992    0.0000 C   0  0  0  0  0  0  0  0  0  0  0  0
   -2.6909   -5.6992    0.0000 C   0  0  0  0  0  0  0  0  0  0  0  0
   -3.1034   -4.9848    0.0000 N   0  0  0  0  0  0  0  0  0  0  0  0
   -3.9284   -3.5558    0.0000 C   0  0  0  0  0  0  0  0  0  0  0  0
   -4.3409   -2.8414    0.0000 C   0  0  0  0  0  0  0  0  0  0  0  0
  1  2  1  0  0  0  0
  2  3  1  0  0  0  0
  3  4  1  0  0  0  0
  4  5  1  0  0  0  0
  4  6  1  0  0  0  0
  6  7  1  0  0  0  0
  7  8  4  0  0  0  0
  8  9  4  0  0  0  0
  9 10  1  0  0  0  0
 10 11  4  0  0  0  0
 11 12  4  0  0  0  0
 12 13  4  0  0  0  0
 13 14  4  0  0  0  0
 10 14  4  0  0  0  0
 14 15  2  0  0  0  0
 13 16  1  0  0  0  0
 16 17  1  0  0  0  0
 17 18  1  0  0  0  0
 18 19  1  0  0  0  0
 12 19  1  0  0  0  0
  9 20  4  0  0  0  0
 20 21  1  0  0  0  0
 20 22  4  0  0  0  0
 22 23  4  0  0  0  0
  7 23  4  0  0  0  0
 23 24  1  0  0  0  0
 24 25  2  0  0  0  0
 24 26  1  0  0  0  0
 26 27  1  0  0  0  0
 27 28  1  0  0  0  0
 28 29  1  0  0  0  0
 29 30  1  0  0  0  0
 30 31  1  0  0  0  0
 31 32  4  0  0  0  0
 32 33  4  0  0  0  0
 33 34  4  0  0  0  0
 34 35  4  0  0  0  0
 35 36  4  0  0  0  0
 31 36  4  0  0  0  0
 30 37  1  0  0  0  0
 37 38  1  0  0  0  0
 27 38  1  0  0  0  0
M  END
> <IC50(uM)>
0.09

> <Outcome>
1.0

> <BindingDB ID>
1020395

> <BindingDB MonomerID>
490351

> <BindingDB Ligand Name>
5-fluoro-4-(3-oxo-5,6,7,8-tetrahydro[1,2,4]triazolo[4,3-a]pyridin-2(3H)-yl)-2-[(2S)-pentan-2-yloxy]-N-[1-(pyrazin-2-yl)piperidin-4-yl]benzamide::US10968216, Example 19

> <Curation/DataSource>
US Patent

> <Article DOI>
?

> <PMID>
?

> <Patent Number>
US10968216

> <Authors>
Gradl, SN; Nguyen, D; Eis, K; Gunther, J; Stellfeld, T; Janzer, A; Christian, S; Mueller, T; Sheikh, SE; Zhou, HJ; Zhao, C; Sykes, DB; Ferrara, SJ; Liu, K; Herbert, SA; Merz, C; Niehues, M; Nising, CF; Schafer, M; Zimmermann, K; Knablein, J; Thede, K; Faupel, T

> <Link to Ligand in BindingDB>
http://www.bindingdb.org/bind/chemsearch/marvin/MolStructure.jsp?monomerid=490351

> <Link to Ligand-Target Pair in BindingDB>
http://www.bindingdb.org/jsp/dbsearch/PrimarySearch_ki.jsp?energyterm=kJ/mole&tag=r21&monomerid=490351&enzyme=Dihydroorotate+dehydrogenase&column=ki&startPg=0&Increment=50&submit=Search

> <PubChem CID>
134473875

> <PubChem SID>
447117078

$$$$

  Mrv2115 07222212352D          

 35 38  0  0  0  0            999 V2000
   -0.6284    2.1599    0.0000 C   0  0  0  0  0  0  0  0  0  0  0  0
   -1.4534    2.1599    0.0000 C   0  0  0  0  0  0  0  0  0  0  0  0
   -1.8659    1.4455    0.0000 C   0  0  0  0  0  0  0  0  0  0  0  0
   -2.6909    1.4455    0.0000 C   0  0  0  0  0  0  0  0  0  0  0  0
   -3.1034    2.1599    0.0000 C   0  0  0  0  0  0  0  0  0  0  0  0
   -3.1034    0.7310    0.0000 O   0  0  0  0  0  0  0  0  0  0  0  0
   -2.6909    0.0165    0.0000 C   0  0  0  0  0  0  0  0  0  0  0  0
   -1.8659    0.0165    0.0000 C   0  0  0  0  0  0  0  0  0  0  0  0
   -1.4534   -0.6979    0.0000 C   0  0  0  0  0  0  0  0  0  0  0  0
   -0.6284   -0.6979    0.0000 N   0  0  0  0  0  0  0  0  0  0  0  0
   -0.1435   -1.3654    0.0000 N   0  0  0  0  0  0  0  0  0  0  0  0
    0.6411   -1.1104    0.0000 C   0  0  0  0  0  0  0  0  0  0  0  0
    0.6411   -0.2854    0.0000 N   0  0  0  0  0  0  0  0  0  0  0  0
   -0.1435   -0.0305    0.0000 C   0  0  0  0  0  0  0  0  0  0  0  0
   -0.3984    0.7541    0.0000 O   0  0  0  0  0  0  0  0  0  0  0  0
    1.3556    0.1271    0.0000 C   0  0  0  0  0  0  0  0  0  0  0  0
    2.0701   -0.2854    0.0000 C   0  0  0  0  0  0  0  0  0  0  0  0
    2.0701   -1.1104    0.0000 C   0  0  0  0  0  0  0  0  0  0  0  0
    1.3556   -1.5229    0.0000 C   0  0  0  0  0  0  0  0  0  0  0  0
   -1.8659   -1.4124    0.0000 C   0  0  0  0  0  0  0  0  0  0  0  0
   -1.4534   -2.1269    0.0000 F   0  0  0  0  0  0  0  0  0  0  0  0
   -2.6909   -1.4124    0.0000 C   0  0  0  0  0  0  0  0  0  0  0  0
   -3.1034   -0.6979    0.0000 C   0  0  0  0  0  0  0  0  0  0  0  0
   -3.9284   -0.6979    0.0000 C   0  0  0  0  0  0  0  0  0  0  0  0
   -4.3409    0.0165    0.0000 O   0  0  0  0  0  0  0  0  0  0  0  0
   -4.3409   -1.4124    0.0000 N   0  0  0  0  0  0  0  0  0  0  0  0
   -3.9284   -2.1269    0.0000 C   0  0  0  0  0  0  0  0  0  0  0  0
   -3.1034   -2.1269    0.0000 C   0  0  0  0  0  0  0  0  0  0  0  0
   -2.6909   -2.8414    0.0000 N   0  0  0  0  0  0  0  0  0  0  0  0
   -3.1034   -3.5558    0.0000 C   0  0  0  0  0  0  0  0  0  0  0  0
   -2.6909   -4.2703    0.0000 O   0  0  0  0  0  0  0  0  0  0  0  0
   -1.8659   -4.2703    0.0000 C   0  0  0  0  0  0  0  0  0  0  0  0
   -3.9284   -3.5558    0.0000 C   0  0  0  0  0  0  0  0  0  0  0  0
   -4.3409   -2.8414    0.0000 C   0  0  0  0  0  0  0  0  0  0  0  0
   -5.1659   -2.8414    0.0000 C   0  0  0  0  0  0  0  0  0  0  0  0
  1  2  1  0  0  0  0
  2  3  1  0  0  0  0
  3  4  1  0  0  0  0
  4  5  1  0  0  0  0
  4  6  1  0  0  0  0
  6  7  1  0  0  0  0
  7  8  4  0  0  0  0
  8  9  4  0  0  0  0
  9 10  1  0  0  0  0
 10 11  4  0  0  0  0
 11 12  4  0  0  0  0
 12 13  4  0  0  0  0
 13 14  4  0  0  0  0
 10 14  4  0  0  0  0
 14 15  2  0  0  0  0
 13 16  1  0  0  0  0
 16 17  1  0  0  0  0
 17 18  1  0  0  0  0
 18 19  1  0  0  0  0
 12 19  1  0  0  0  0
  9 20  4  0  0  0  0
 20 21  1  0  0  0  0
 20 22  4  0  0  0  0
 22 23  4  0  0  0  0
  7 23  4  0  0  0  0
 23 24  1  0  0  0  0
 24 25  2  0  0  0  0
 24 26  1  0  0  0  0
 26 27  1  0  0  0  0
 27 28  4  0  0  0  0
 28 29  4  0  0  0  0
 29 30  4  0  0  0  0
 30 31  1  0  0  0  0
 31 32  1  0  0  0  0
 30 33  4  0  0  0  0
 33 34  4  0  0  0  0
 27 34  4  0  0  0  0
 34 35  1  0  0  0  0
M  END
> <IC50(uM)>
0.012

> <Outcome>
1.0

> <BindingDB ID>
1020390

> <BindingDB MonomerID>
490346

> <BindingDB Ligand Name>
5-fluoro-N-(6-methoxy-4-methylpyridin-3-yl)-4-(3-oxo-5,6,7,8-tetrahydro[1,2,4]triazolo[4,3-a]pyridin-2(3H)-yl)-2-[(2S)-pentan-2-yloxy]benzamide::US10968216, Example 14

> <Curation/DataSource>
US Patent

> <Article DOI>
?

> <PMID>
?

> <Patent Number>
US10968216

> <Authors>
Gradl, SN; Nguyen, D; Eis, K; Gunther, J; Stellfeld, T; Janzer, A; Christian, S; Mueller, T; Sheikh, SE; Zhou, HJ; Zhao, C; Sykes, DB; Ferrara, SJ; Liu, K; Herbert, SA; Merz, C; Niehues, M; Nising, CF; Schafer, M; Zimmermann, K; Knablein, J; Thede, K; Faupel, T

> <Link to Ligand in BindingDB>
http://www.bindingdb.org/bind/chemsearch/marvin/MolStructure.jsp?monomerid=490346

> <Link to Ligand-Target Pair in BindingDB>
http://www.bindingdb.org/jsp/dbsearch/PrimarySearch_ki.jsp?energyterm=kJ/mole&tag=r21&monomerid=490346&enzyme=Dihydroorotate+dehydrogenase&column=ki&startPg=0&Increment=50&submit=Search

> <PubChem CID>
134474265

> <PubChem SID>
447117073

$$$$

  Mrv2115 07222212352D          

 19 20  0  0  0  0            999 V2000
   -4.2868    4.1250    0.0000 N   0  0  0  0  0  0  0  0  0  0  0  0
   -3.5724    3.7125    0.0000 C   0  0  0  0  0  0  0  0  0  0  0  0
   -2.8579    3.3000    0.0000 C   0  0  0  0  0  0  0  0  0  0  0  0
   -2.1434    3.7125    0.0000 C   0  0  0  0  0  0  0  0  0  0  0  0
   -1.4289    3.3000    0.0000 C   0  0  0  0  0  0  0  0  0  0  0  0
   -1.4289    2.4750    0.0000 C   0  0  0  0  0  0  0  0  0  0  0  0
   -0.7145    2.0625    0.0000 N   0  0  0  0  0  0  0  0  0  0  0  0
    0.0000    2.4750    0.0000 C   0  0  0  0  0  0  0  0  0  0  0  0
   -0.0000    3.3000    0.0000 O   0  0  0  0  0  0  0  0  0  0  0  0
    0.7145    2.0625    0.0000 C   0  0  0  0  0  0  0  0  0  0  0  0
    0.7145    1.2375    0.0000 C   0  0  0  0  0  0  0  0  0  0  0  0
    0.7145    0.4125    0.0000 N   0  0  0  0  0  0  0  0  0  0  0  0
    1.4289    2.4750    0.0000 C   0  0  0  0  0  0  0  0  0  0  0  0
    1.4289    3.3000    0.0000 O   0  0  0  0  0  0  0  0  0  0  0  0
    2.1434    2.0625    0.0000 C   0  0  0  0  0  0  0  0  0  0  0  0
    2.9684    2.0625    0.0000 C   0  0  0  0  0  0  0  0  0  0  0  0
    2.5559    1.3480    0.0000 C   0  0  0  0  0  0  0  0  0  0  0  0
   -2.1434    2.0625    0.0000 C   0  0  0  0  0  0  0  0  0  0  0  0
   -2.8579    2.4750    0.0000 C   0  0  0  0  0  0  0  0  0  0  0  0
  1  2  3  0  0  0  0
  2  3  1  0  0  0  0
  3  4  4  0  0  0  0
  4  5  4  0  0  0  0
  5  6  4  0  0  0  0
  6  7  1  0  0  0  0
  7  8  1  0  0  0  0
  8  9  2  0  0  0  0
  8 10  1  0  0  0  0
 10 11  1  0  0  0  0
 11 12  3  0  0  0  0
 10 13  1  0  0  0  0
 13 14  2  0  0  0  0
 13 15  1  0  0  0  0
 15 16  1  0  0  0  0
 16 17  1  0  0  0  0
 15 17  1  0  0  0  0
  6 18  4  0  0  0  0
 18 19  4  0  0  0  0
  3 19  4  0  0  0  0
M  END
> <IC50(uM)>
0.6

> <Outcome>
1.0

> <BindingDB ID>
176942

> <BindingDB MonomerID>
50054587

> <BindingDB Ligand Name>
(Z)-2-Cyano-N-(4-cyano-phenyl)-3-cyclopropyl-3-hydroxy-acrylamide::Alpha-cyano-beta-hydroxy enamide, 6::CHEMBL141195

> <Curation/DataSource>
Curated from the literature by BindingDB

> <Article DOI>
?

> <PMID>
?

> <Patent Number>
?

> <Authors>
Papagergiou, C; Zurini, M; Weber, HP; Borer, X

> <Link to Ligand in BindingDB>
http://www.bindingdb.org/bind/chemsearch/marvin/MolStructure.jsp?monomerid=50054587

> <Link to Ligand-Target Pair in BindingDB>
http://www.bindingdb.org/jsp/dbsearch/PrimarySearch_ki.jsp?energyterm=kJ/mole&tag=r21&monomerid=50054587&enzyme=Dihydroorotate+dehydrogenase&column=ki&startPg=0&Increment=50&submit=Search

> <PubChem CID>
10198927

> <PubChem SID>
103951172

$$$$

  Mrv2115 07222212352D          

 37 40  0  0  0  0            999 V2000
    4.2868   -2.4750    0.0000 C   0  0  0  0  0  0  0  0  0  0  0  0
    3.5724   -2.8875    0.0000 C   0  0  0  0  0  0  0  0  0  0  0  0
    2.8579   -2.4750    0.0000 O   0  0  0  0  0  0  0  0  0  0  0  0
    2.1434   -2.8875    0.0000 C   0  0  0  0  0  0  0  0  0  0  0  0
    2.1434   -3.7125    0.0000 C   0  0  0  0  0  0  0  0  0  0  0  0
    1.4289   -4.1250    0.0000 C   0  0  0  0  0  0  0  0  0  0  0  0
    1.4289   -4.9500    0.0000 N   0  0  0  0  0  0  0  0  0  0  0  0
    2.0964   -5.4349    0.0000 N   0  0  0  0  0  0  0  0  0  0  0  0
    1.8414   -6.2195    0.0000 C   0  0  0  0  0  0  0  0  0  0  0  0
    2.3264   -6.8870    0.0000 C   0  0  0  0  0  0  0  0  0  0  0  0
    3.1514   -6.8870    0.0000 C   0  0  0  0  0  0  0  0  0  0  0  0
    3.4063   -7.6716    0.0000 C   0  0  0  0  0  0  0  0  0  0  0  0
    2.7389   -8.1565    0.0000 C   0  0  0  0  0  0  0  0  0  0  0  0
    2.0714   -7.6716    0.0000 C   0  0  0  0  0  0  0  0  0  0  0  0
    1.0164   -6.2195    0.0000 N   0  0  0  0  0  0  0  0  0  0  0  0
    0.5315   -6.8870    0.0000 C   0  0  0  0  0  0  0  0  0  0  0  0
    0.7615   -5.4349    0.0000 C   0  0  0  0  0  0  0  0  0  0  0  0
   -0.0231   -5.1800    0.0000 O   0  0  0  0  0  0  0  0  0  0  0  0
    0.7145   -3.7125    0.0000 C   0  0  0  0  0  0  0  0  0  0  0  0
    0.0000   -4.1250    0.0000 F   0  0  0  0  0  0  0  0  0  0  0  0
    0.7145   -2.8875    0.0000 C   0  0  0  0  0  0  0  0  0  0  0  0
    1.4289   -2.4750    0.0000 C   0  0  0  0  0  0  0  0  0  0  0  0
    1.4289   -1.6500    0.0000 C   0  0  0  0  0  0  0  0  0  0  0  0
    2.1434   -1.2375    0.0000 O   0  0  0  0  0  0  0  0  0  0  0  0
    0.7145   -1.2375    0.0000 N   0  0  0  0  0  0  0  0  0  0  0  0
    0.7145   -0.4125    0.0000 C   0  0  0  0  0  0  0  0  0  0  0  0
    0.0000    0.0000    0.0000 C   0  0  0  0  0  0  0  0  0  0  0  0
   -0.7145   -0.4125    0.0000 F   0  0  0  0  0  0  0  0  0  0  0  0
    0.0000    0.8250    0.0000 C   0  0  0  0  0  0  0  0  0  0  0  0
    0.7145    1.2375    0.0000 C   0  0  0  0  0  0  0  0  0  0  0  0
    1.4289    0.8250    0.0000 C   0  0  0  0  0  0  0  0  0  0  0  0
    1.4289    0.0000    0.0000 C   0  0  0  0  0  0  0  0  0  0  0  0
    2.1434   -0.4125    0.0000 F   0  0  0  0  0  0  0  0  0  0  0  0
    3.5724   -3.7125    0.0000 C   0  0  0  0  0  0  0  0  0  0  0  0
    2.7474   -3.7125    0.0000 F   0  0  0  0  0  0  0  0  0  0  0  0
    4.3974   -3.7125    0.0000 F   0  0  0  0  0  0  0  0  0  0  0  0
    3.5724   -4.5375    0.0000 F   0  0  0  0  0  0  0  0  0  0  0  0
  1  2  1  0  0  0  0
  2  3  1  0  0  0  0
  3  4  1  0  0  0  0
  4  5  4  0  0  0  0
  5  6  4  0  0  0  0
  6  7  1  0  0  0  0
  7  8  4  0  0  0  0
  8  9  4  0  0  0  0
  9 10  1  0  0  0  0
 10 11  1  0  0  0  0
 11 12  1  0  0  0  0
 12 13  1  0  0  0  0
 13 14  1  0  0  0  0
 10 14  1  0  0  0  0
  9 15  4  0  0  0  0
 15 16  1  0  0  0  0
 15 17  4  0  0  0  0
  7 17  4  0  0  0  0
 17 18  2  0  0  0  0
  6 19  4  0  0  0  0
 19 20  1  0  0  0  0
 19 21  4  0  0  0  0
 21 22  4  0  0  0  0
  4 22  4  0  0  0  0
 22 23  1  0  0  0  0
 23 24  2  0  0  0  0
 23 25  1  0  0  0  0
 25 26  1  0  0  0  0
 26 27  4  0  0  0  0
 27 28  1  0  0  0  0
 27 29  4  0  0  0  0
 29 30  4  0  0  0  0
 30 31  4  0  0  0  0
 31 32  4  0  0  0  0
 26 32  4  0  0  0  0
 32 33  1  0  0  0  0
  2 34  1  0  0  0  0
 34 35  1  0  0  0  0
 34 36  1  0  0  0  0
 34 37  1  0  0  0  0
M  END
> <IC50(uM)>
0.6

> <Outcome>
1.0

> <BindingDB ID>
1098724; 972570

> <BindingDB MonomerID>
470444

> <BindingDB Ligand Name>
4-(3-cyclopentyl-4-methyl-5-oxo-4,5-dihydro-1H-1,2,4-triazol-1-yl)-N-(2,6-difluorophenyl)-5-fluoro-2-{[(2S)-1,1,1-trifluoropropan-2-yl]oxy}benzamide::US10815215, Example 112::US11130745, Example 112; 4-(3-cyclopentyl-4-methyl-5-oxo-4,5-dihydro-1H-1,2,4-triazol-1-yl)-N-(2,6-difluorophenyl)-5-fluoro-2-{[(2S)-1,1,1-trifluoropropan-2-yl]oxy}benzamide::US10815215, Example 112

> <Curation/DataSource>
US Patent

> <Article DOI>
?

> <PMID>
?

> <Patent Number>
US11130745; US10815215

> <Authors>
Gradl, SN; Nguyen, D; Eis, K; Gunther, J; Stellfeld, T; Janzer, A; Christian, S; Muller, T; Sheikh, SE; Sykes, DB; Ferrara, SJ; Krober, M; Merz, C; Niehues, M; Schafer, M; Zimmermann, K; Nising, CF; Gradl, SN; Nguyen, D; Eis, K; Gunther, J; Stellfeld, T; Janzer, A; Christian, S; Muller, T; Sheikh, SE; Zhou, HJ; Zhao, C; Sykes, DB; Ferrara, SJ; Liu, K; Krober, M; Merz, C; Niehues, M; Schafer, M; Zimmermann, K; Nising, CF

> <Link to Ligand in BindingDB>
http://www.bindingdb.org/bind/chemsearch/marvin/MolStructure.jsp?monomerid=470444

> <Link to Ligand-Target Pair in BindingDB>
http://www.bindingdb.org/jsp/dbsearch/PrimarySearch_ki.jsp?energyterm=kJ/mole&tag=r21&monomerid=470444&enzyme=Dihydroorotate+dehydrogenase&column=ki&startPg=0&Increment=50&submit=Search

> <PubChem CID>
134469950

> <PubChem SID>
441609621

$$$$

  Mrv2115 07222212352D          

 24 27  0  0  0  0            999 V2000
    3.9934    2.4750    0.0000 N   0  0  0  0  0  0  0  0  0  0  0  0
    3.2789    2.0625    0.0000 C   0  0  0  0  0  0  0  0  0  0  0  0
    2.5645    2.4750    0.0000 O   0  0  0  0  0  0  0  0  0  0  0  0
    3.2789    1.2375    0.0000 C   0  0  0  0  0  0  0  0  0  0  0  0
    3.9934    0.8250    0.0000 C   0  0  0  0  0  0  0  0  0  0  0  0
    3.9934    0.0000    0.0000 C   0  0  0  0  0  0  0  0  0  0  0  0
    3.2789   -0.4125    0.0000 C   0  0  0  0  0  0  0  0  0  0  0  0
    2.5645    0.0000    0.0000 C   0  0  0  0  0  0  0  0  0  0  0  0
    1.7798   -0.2549    0.0000 N   0  0  0  0  0  0  0  0  0  0  0  0
    1.2949    0.4125    0.0000 C   0  0  0  0  0  0  0  0  0  0  0  0
    0.4699    0.4125    0.0000 C   0  0  0  0  0  0  0  0  0  0  0  0
    0.0574   -0.3020    0.0000 C   0  0  0  0  0  0  0  0  0  0  0  0
   -0.7676   -0.3020    0.0000 C   0  0  0  0  0  0  0  0  0  0  0  0
   -1.1801    0.4125    0.0000 C   0  0  0  0  0  0  0  0  0  0  0  0
   -2.0051    0.4125    0.0000 C   0  0  0  0  0  0  0  0  0  0  0  0
   -2.4176   -0.3020    0.0000 C   0  0  0  0  0  0  0  0  0  0  0  0
   -3.2426   -0.3020    0.0000 C   0  0  0  0  0  0  0  0  0  0  0  0
   -3.6551    0.4125    0.0000 C   0  0  0  0  0  0  0  0  0  0  0  0
   -3.2426    1.1270    0.0000 C   0  0  0  0  0  0  0  0  0  0  0  0
   -2.4176    1.1270    0.0000 N   0  0  0  0  0  0  0  0  0  0  0  0
   -0.7676    1.1270    0.0000 C   0  0  0  0  0  0  0  0  0  0  0  0
    0.0574    1.1270    0.0000 C   0  0  0  0  0  0  0  0  0  0  0  0
    1.7798    1.0799    0.0000 N   0  0  0  0  0  0  0  0  0  0  0  0
    2.5645    0.8250    0.0000 C   0  0  0  0  0  0  0  0  0  0  0  0
  1  2  1  0  0  0  0
  2  3  2  0  0  0  0
  2  4  1  0  0  0  0
  4  5  4  0  0  0  0
  5  6  4  0  0  0  0
  6  7  4  0  0  0  0
  7  8  4  0  0  0  0
  8  9  4  0  0  0  0
  9 10  4  0  0  0  0
 10 11  1  0  0  0  0
 11 12  4  0  0  0  0
 12 13  4  0  0  0  0
 13 14  4  0  0  0  0
 14 15  1  0  0  0  0
 15 16  4  0  0  0  0
 16 17  4  0  0  0  0
 17 18  4  0  0  0  0
 18 19  4  0  0  0  0
 19 20  4  0  0  0  0
 15 20  4  0  0  0  0
 14 21  4  0  0  0  0
 21 22  4  0  0  0  0
 11 22  4  0  0  0  0
 10 23  4  0  0  0  0
 23 24  4  0  0  0  0
  4 24  4  0  0  0  0
  8 24  4  0  0  0  0
M  STY  1   1 DAT
M  SAL   1  1   9
M  SDT   1 MRV_IMPLICIT_H                                        
M  SDD   1     0.5304   -0.4125    DR    ALL  0       0  
M  SED   1 IMPL_H1
M  END
> <IC50(uM)>
28.0

> <Outcome>
0.0

> <BindingDB ID>
50358217

> <BindingDB MonomerID>
50300016

> <BindingDB Ligand Name>
2-(4-(Pyridin-2-yl)phenyl)-1H-benzo[d]imidazole-4-carboxamide::2-(4-pyridine-2-ylphenyl)-1H-benzimidazole-4-carboxamide::CHEMBL576423

> <Curation/DataSource>
ChEMBL

> <Article DOI>
10.1016/j.bmc.2015.05.051

> <PMID>
26088338

> <Patent Number>
?

> <Authors>
Abdullah, I; Chee, CF; Lee, YK; Thunuguntla, SS; Satish Reddy, K; Nellore, K; Antony, T; Verma, J; Mun, KW; Othman, S; Subramanya, H; Rahman, NA

> <Link to Ligand in BindingDB>
http://www.bindingdb.org/bind/chemsearch/marvin/MolStructure.jsp?monomerid=50300016

> <Link to Ligand-Target Pair in BindingDB>
http://www.bindingdb.org/jsp/dbsearch/PrimarySearch_ki.jsp?energyterm=kJ/mole&tag=r21&monomerid=50300016&enzyme=Dihydroorotate+dehydrogenase&column=ki&startPg=0&Increment=50&submit=Search

> <PubChem CID>
44542366

> <PubChem SID>
104154377

$$$$

  Mrv2115 07222212352D          

 28 32  0  0  0  0            999 V2000
    0.1536    1.3672    0.0000 O   0  0  0  0  0  0  0  0  0  0  0  0
   -0.3984    0.7541    0.0000 C   0  0  0  0  0  0  0  0  0  0  0  0
   -1.2054    0.9256    0.0000 N   0  0  0  0  0  0  0  0  0  0  0  0
   -1.4604    1.7103    0.0000 C   0  0  0  0  0  0  0  0  0  0  0  0
   -2.2673    1.8818    0.0000 C   0  0  0  0  0  0  0  0  0  0  0  0
   -2.5223    2.6664    0.0000 C   0  0  0  0  0  0  0  0  0  0  0  0
   -1.9702    3.2795    0.0000 C   0  0  0  0  0  0  0  0  0  0  0  0
   -1.1633    3.1080    0.0000 C   0  0  0  0  0  0  0  0  0  0  0  0
   -0.9083    2.3234    0.0000 C   0  0  0  0  0  0  0  0  0  0  0  0
   -0.0833    2.3234    0.0000 C   0  0  0  0  0  0  0  0  0  0  0  0
    0.1716    3.1080    0.0000 N   0  0  0  0  0  0  0  0  0  0  0  0
   -0.4958    3.5929    0.0000 N   0  0  0  0  0  0  0  0  0  0  0  0
   -0.4958    4.4179    0.0000 C   0  0  0  0  0  0  0  0  0  0  0  0
   -1.2103    4.8304    0.0000 C   0  0  0  0  0  0  0  0  0  0  0  0
   -1.2103    5.6554    0.0000 C   0  0  0  0  0  0  0  0  0  0  0  0
   -0.4958    6.0679    0.0000 C   0  0  0  0  0  0  0  0  0  0  0  0
    0.2186    5.6554    0.0000 C   0  0  0  0  0  0  0  0  0  0  0  0
    0.2186    4.8304    0.0000 C   0  0  0  0  0  0  0  0  0  0  0  0
    0.9331    4.4179    0.0000 F   0  0  0  0  0  0  0  0  0  0  0  0
   -0.1435   -0.0305    0.0000 C   0  0  0  0  0  0  0  0  0  0  0  0
   -0.6284   -0.6979    0.0000 N   0  0  0  0  0  0  0  0  0  0  0  0
   -0.1435   -1.3654    0.0000 C   0  0  0  0  0  0  0  0  0  0  0  0
    0.6411   -1.1104    0.0000 N   0  0  0  0  0  0  0  0  0  0  0  0
    0.6411   -0.2854    0.0000 C   0  0  0  0  0  0  0  0  0  0  0  0
    1.3556    0.1271    0.0000 C   0  0  0  0  0  0  0  0  0  0  0  0
    2.0701   -0.2854    0.0000 C   0  0  0  0  0  0  0  0  0  0  0  0
    2.0701   -1.1104    0.0000 C   0  0  0  0  0  0  0  0  0  0  0  0
    1.3556   -1.5229    0.0000 C   0  0  0  0  0  0  0  0  0  0  0  0
  1  2  2  0  0  0  0
  2  3  1  0  0  0  0
  3  4  1  0  0  0  0
  4  5  1  0  0  0  0
  5  6  1  0  0  0  0
  6  7  1  0  0  0  0
  7  8  1  0  0  0  0
  8  9  4  0  0  0  0
  4  9  1  0  0  0  0
  9 10  4  0  0  0  0
 10 11  4  0  0  0  0
 11 12  4  0  0  0  0
  8 12  4  0  0  0  0
 12 13  1  0  0  0  0
 13 14  4  0  0  0  0
 14 15  4  0  0  0  0
 15 16  4  0  0  0  0
 16 17  4  0  0  0  0
 17 18  4  0  0  0  0
 13 18  4  0  0  0  0
 18 19  1  0  0  0  0
  2 20  1  0  0  0  0
 20 21  4  0  0  0  0
 21 22  4  0  0  0  0
 22 23  4  0  0  0  0
 23 24  4  0  0  0  0
 20 24  4  0  0  0  0
 24 25  1  0  0  0  0
 25 26  1  0  0  0  0
 26 27  1  0  0  0  0
 27 28  1  0  0  0  0
 23 28  1  0  0  0  0
M  END
> <IC50(uM)>
0.003816666666666666

> <Outcome>
1.0

> <BindingDB ID>
51334965; 51334976; 993114

> <BindingDB MonomerID>
477616

> <BindingDB Ligand Name>
(R)??N-(1-(2-fluorophenyl)-4,5,6,7-tetrahydro-1H-indazol-4-yl)-5,6,7,8-tetrahydroimidazo[1,5-a]pyridine-1-carboxamide::US10889564, Example 46

> <Curation/DataSource>
ChEMBL; US Patent

> <Article DOI>
10.1021/acs.jmedchem.9b01658; ?

> <PMID>
32212728; ?

> <Patent Number>
?; US10889564

> <Authors>
Popova, G; Ladds, MJGW; Johansson, L; Saleh, A; Larsson, J; Sandberg, L; Sahlberg, SH; Qian, W; Gullberg, H; Garg, N; Gustavsson, AL; Haraldsson, M; Lane, D; Yngve, U; Lain, S; Lain, S; Drummond, C; Leeuwen, IV; Haraldsson, M; Johansson, L; Sandberg, L; Yngve, U

> <Link to Ligand in BindingDB>
http://www.bindingdb.org/bind/chemsearch/marvin/MolStructure.jsp?monomerid=477616

> <Link to Ligand-Target Pair in BindingDB>
http://www.bindingdb.org/jsp/dbsearch/PrimarySearch_ki.jsp?energyterm=kJ/mole&tag=r21&monomerid=477616&enzyme=Dihydroorotate+dehydrogenase&column=ki&startPg=0&Increment=50&submit=Search

> <PubChem CID>
129126856

> <PubChem SID>
442137233

$$$$

  Mrv2115 07222212352D          

 21 23  0  0  0  0            999 V2000
   -4.2962   -2.1269    0.0000 C   0  0  0  0  0  0  0  0  0  0  0  0
   -3.8837   -1.4124    0.0000 O   0  0  0  0  0  0  0  0  0  0  0  0
   -3.0587   -1.4124    0.0000 C   0  0  0  0  0  0  0  0  0  0  0  0
   -2.6462   -0.6979    0.0000 C   0  0  0  0  0  0  0  0  0  0  0  0
   -1.8212   -0.6979    0.0000 C   0  0  0  0  0  0  0  0  0  0  0  0
   -1.4087   -1.4124    0.0000 C   0  0  0  0  0  0  0  0  0  0  0  0
   -0.5837   -1.4124    0.0000 C   0  0  0  0  0  0  0  0  0  0  0  0
   -0.1712   -0.6979    0.0000 S   0  0  0  0  0  0  0  0  0  0  0  0
    0.6538   -0.6979    0.0000 C   0  0  0  0  0  0  0  0  0  0  0  0
    1.1387   -0.0305    0.0000 N   0  0  0  0  0  0  0  0  0  0  0  0
    1.9233   -0.2854    0.0000 C   0  0  0  0  0  0  0  0  0  0  0  0
    2.6378    0.1271    0.0000 N   0  0  0  0  0  0  0  0  0  0  0  0
    3.3523   -0.2854    0.0000 C   0  0  0  0  0  0  0  0  0  0  0  0
    4.0668    0.1271    0.0000 C   0  0  0  0  0  0  0  0  0  0  0  0
    3.3523   -1.1104    0.0000 C   0  0  0  0  0  0  0  0  0  0  0  0
    2.6378   -1.5229    0.0000 C   0  0  0  0  0  0  0  0  0  0  0  0
    2.6378   -2.3479    0.0000 O   0  0  0  0  0  0  0  0  0  0  0  0
    1.9233   -1.1104    0.0000 N   0  0  0  0  0  0  0  0  0  0  0  0
    1.1387   -1.3654    0.0000 N   0  0  0  0  0  0  0  0  0  0  0  0
   -1.8212   -2.1269    0.0000 C   0  0  0  0  0  0  0  0  0  0  0  0
   -2.6462   -2.1269    0.0000 C   0  0  0  0  0  0  0  0  0  0  0  0
  1  2  1  0  0  0  0
  2  3  1  0  0  0  0
  3  4  4  0  0  0  0
  4  5  4  0  0  0  0
  5  6  4  0  0  0  0
  6  7  1  0  0  0  0
  7  8  1  0  0  0  0
  8  9  1  0  0  0  0
  9 10  4  0  0  0  0
 10 11  4  0  0  0  0
 11 12  4  0  0  0  0
 12 13  4  0  0  0  0
 13 14  1  0  0  0  0
 13 15  4  0  0  0  0
 15 16  4  0  0  0  0
 16 17  2  0  0  0  0
 16 18  4  0  0  0  0
 11 18  4  0  0  0  0
 18 19  4  0  0  0  0
  9 19  4  0  0  0  0
  6 20  4  0  0  0  0
 20 21  4  0  0  0  0
  3 21  4  0  0  0  0
M  STY  1   1 DAT
M  SAL   1  1  19
M  SDT   1 MRV_IMPLICIT_H                                        
M  SDD   1     0.5304   -0.4125    DR    ALL  0       0  
M  SED   1 IMPL_H1
M  END
> <IC50(uM)>
63.0

> <Outcome>
0.0

> <BindingDB ID>
50970251

> <BindingDB MonomerID>
50397824

> <BindingDB Ligand Name>
CHEMBL2177854

> <Curation/DataSource>
ChEMBL

> <Article DOI>
10.1021/jm300157n

> <PMID>
22621375

> <Patent Number>
?

> <Authors>
Bedingfield, PT; Cowen, D; Acklam, P; Cunningham, F; Parsons, MR; McConkey, GA; Fishwick, CW; Johnson, AP

> <Link to Ligand in BindingDB>
http://www.bindingdb.org/bind/chemsearch/marvin/MolStructure.jsp?monomerid=50397824

> <Link to Ligand-Target Pair in BindingDB>
http://www.bindingdb.org/jsp/dbsearch/PrimarySearch_ki.jsp?energyterm=kJ/mole&tag=r21&monomerid=50397824&enzyme=Dihydroorotate+dehydrogenase&column=ki&startPg=0&Increment=50&submit=Search

> <PubChem CID>
60166481

> <PubChem SID>
163346848

$$$$

  Mrv2115 07222212352D          

 37 40  0  0  0  0            999 V2000
   -3.2083    2.1568    0.0000 C   0  0  0  0  0  0  0  0  0  0  0  0
   -2.7958    1.4423    0.0000 C   0  0  0  0  0  0  0  0  0  0  0  0
   -3.2083    0.7279    0.0000 O   0  0  0  0  0  0  0  0  0  0  0  0
   -2.7958    0.0134    0.0000 C   0  0  0  0  0  0  0  0  0  0  0  0
   -1.9708    0.0134    0.0000 C   0  0  0  0  0  0  0  0  0  0  0  0
   -1.5583   -0.7011    0.0000 C   0  0  0  0  0  0  0  0  0  0  0  0
   -0.7333   -0.7011    0.0000 N   0  0  0  0  0  0  0  0  0  0  0  0
   -0.2483   -1.3685    0.0000 N   0  0  0  0  0  0  0  0  0  0  0  0
    0.5363   -1.1136    0.0000 C   0  0  0  0  0  0  0  0  0  0  0  0
    0.5363   -0.2886    0.0000 N   0  0  0  0  0  0  0  0  0  0  0  0
   -0.2483   -0.0336    0.0000 C   0  0  0  0  0  0  0  0  0  0  0  0
   -0.5033    0.7510    0.0000 O   0  0  0  0  0  0  0  0  0  0  0  0
    1.1813    0.2258    0.0000 C   0  0  0  0  0  0  0  0  0  0  0  0
    1.9856    0.0422    0.0000 C   0  0  0  0  0  0  0  0  0  0  0  0
    2.3436   -0.7011    0.0000 C   0  0  0  0  0  0  0  0  0  0  0  0
    1.9856   -1.4444    0.0000 O   0  0  0  0  0  0  0  0  0  0  0  0
    1.1813   -1.6280    0.0000 C   0  0  0  0  0  0  0  0  0  0  0  0
   -1.9708   -1.4156    0.0000 C   0  0  0  0  0  0  0  0  0  0  0  0
   -1.5583   -2.1300    0.0000 F   0  0  0  0  0  0  0  0  0  0  0  0
   -2.7958   -1.4156    0.0000 C   0  0  0  0  0  0  0  0  0  0  0  0
   -3.2083   -0.7011    0.0000 C   0  0  0  0  0  0  0  0  0  0  0  0
   -4.0333   -0.7011    0.0000 C   0  0  0  0  0  0  0  0  0  0  0  0
   -4.4458    0.0134    0.0000 O   0  0  0  0  0  0  0  0  0  0  0  0
   -4.4458   -1.4156    0.0000 N   0  0  0  0  0  0  0  0  0  0  0  0
   -5.2708   -1.4156    0.0000 C   0  0  0  0  0  0  0  0  0  0  0  0
   -5.6833   -2.1300    0.0000 C   0  0  0  0  0  0  0  0  0  0  0  0
   -5.2708   -2.8445    0.0000 F   0  0  0  0  0  0  0  0  0  0  0  0
   -6.5083   -2.1300    0.0000 C   0  0  0  0  0  0  0  0  0  0  0  0
   -6.9208   -1.4156    0.0000 C   0  0  0  0  0  0  0  0  0  0  0  0
   -7.7458   -1.4156    0.0000 F   0  0  0  0  0  0  0  0  0  0  0  0
   -6.5083   -0.7011    0.0000 C   0  0  0  0  0  0  0  0  0  0  0  0
   -5.6833   -0.7011    0.0000 C   0  0  0  0  0  0  0  0  0  0  0  0
   -5.2708    0.0134    0.0000 Cl  0  0  0  0  0  0  0  0  0  0  0  0
   -1.9708    1.4423    0.0000 C   0  0  0  0  0  0  0  0  0  0  0  0
   -1.9708    0.6173    0.0000 F   0  0  0  0  0  0  0  0  0  0  0  0
   -1.9708    2.2673    0.0000 F   0  0  0  0  0  0  0  0  0  0  0  0
   -1.1458    1.4423    0.0000 F   0  0  0  0  0  0  0  0  0  0  0  0
  1  2  1  0  0  0  0
  2  3  1  0  0  0  0
  3  4  1  0  0  0  0
  4  5  4  0  0  0  0
  5  6  4  0  0  0  0
  6  7  1  0  0  0  0
  7  8  4  0  0  0  0
  8  9  4  0  0  0  0
  9 10  4  0  0  0  0
 10 11  4  0  0  0  0
  7 11  4  0  0  0  0
 11 12  2  0  0  0  0
 10 13  1  0  0  0  0
 13 14  1  0  0  0  0
 14 15  1  0  0  0  0
 15 16  1  0  0  0  0
 16 17  1  0  0  0  0
  9 17  1  0  0  0  0
  6 18  4  0  0  0  0
 18 19  1  0  0  0  0
 18 20  4  0  0  0  0
 20 21  4  0  0  0  0
  4 21  4  0  0  0  0
 21 22  1  0  0  0  0
 22 23  2  0  0  0  0
 22 24  1  0  0  0  0
 24 25  1  0  0  0  0
 25 26  4  0  0  0  0
 26 27  1  0  0  0  0
 26 28  4  0  0  0  0
 28 29  4  0  0  0  0
 29 30  1  0  0  0  0
 29 31  4  0  0  0  0
 31 32  4  0  0  0  0
 25 32  4  0  0  0  0
 32 33  1  0  0  0  0
  2 34  1  0  0  0  0
 34 35  1  0  0  0  0
 34 36  1  0  0  0  0
 34 37  1  0  0  0  0
M  END
> <IC50(uM)>
0.015

> <Outcome>
1.0

> <BindingDB ID>
1020637

> <BindingDB MonomerID>
490566

> <BindingDB Ligand Name>
N-(2-chloro-4,6-difluorophenyl)-5-fluoro-4-(3-oxo-6,7-dihydro-3H,5H-[1,2,4]triazolo[3,4-c-][1,4]oxazepin-2(9H)-yl)-2-{[(2S)-1,1,1-trifluoropropan-2-yl]oxy}benzamide::US10968216, Example 234

> <Curation/DataSource>
US Patent

> <Article DOI>
?

> <PMID>
?

> <Patent Number>
US10968216

> <Authors>
Gradl, SN; Nguyen, D; Eis, K; Gunther, J; Stellfeld, T; Janzer, A; Christian, S; Mueller, T; Sheikh, SE; Zhou, HJ; Zhao, C; Sykes, DB; Ferrara, SJ; Liu, K; Herbert, SA; Merz, C; Niehues, M; Nising, CF; Schafer, M; Zimmermann, K; Knablein, J; Thede, K; Faupel, T

> <Link to Ligand in BindingDB>
http://www.bindingdb.org/bind/chemsearch/marvin/MolStructure.jsp?monomerid=490566

> <Link to Ligand-Target Pair in BindingDB>
http://www.bindingdb.org/jsp/dbsearch/PrimarySearch_ki.jsp?energyterm=kJ/mole&tag=r21&monomerid=490566&enzyme=Dihydroorotate+dehydrogenase&column=ki&startPg=0&Increment=50&submit=Search

> <PubChem CID>
134474521

> <PubChem SID>
447117292

$$$$

  Mrv2115 07222212352D          

 34 36  0  0  0  0            999 V2000
    2.1434   -3.7125    0.0000 C   0  0  0  0  0  0  0  0  0  0  0  0
    2.8579   -4.1250    0.0000 C   0  0  0  0  0  0  0  0  0  0  0  0
    3.5724   -3.7125    0.0000 C   0  0  0  0  0  0  0  0  0  0  0  0
    4.2868   -4.1250    0.0000 C   0  0  0  0  0  0  0  0  0  0  0  0
    4.2868   -4.9500    0.0000 C   0  0  0  0  0  0  0  0  0  0  0  0
    5.0013   -3.7125    0.0000 O   0  0  0  0  0  0  0  0  0  0  0  0
    5.0013   -2.8875    0.0000 C   0  0  0  0  0  0  0  0  0  0  0  0
    4.2868   -2.4750    0.0000 C   0  0  0  0  0  0  0  0  0  0  0  0
    4.2868   -1.6500    0.0000 C   0  0  0  0  0  0  0  0  0  0  0  0
    3.5724   -1.2375    0.0000 N   0  0  0  0  0  0  0  0  0  0  0  0
    2.8187   -1.5731    0.0000 N   0  0  0  0  0  0  0  0  0  0  0  0
    2.2666   -0.9600    0.0000 C   0  0  0  0  0  0  0  0  0  0  0  0
    1.4462   -1.0462    0.0000 C   0  0  0  0  0  0  0  0  0  0  0  0
    1.1106   -1.7999    0.0000 C   0  0  0  0  0  0  0  0  0  0  0  0
    0.9612   -0.3788    0.0000 O   0  0  0  0  0  0  0  0  0  0  0  0
    2.6791   -0.2455    0.0000 N   0  0  0  0  0  0  0  0  0  0  0  0
    2.3436    0.5082    0.0000 C   0  0  0  0  0  0  0  0  0  0  0  0
    3.4861   -0.4170    0.0000 C   0  0  0  0  0  0  0  0  0  0  0  0
    4.0992    0.1350    0.0000 O   0  0  0  0  0  0  0  0  0  0  0  0
    5.0013   -1.2375    0.0000 C   0  0  0  0  0  0  0  0  0  0  0  0
    5.0013   -0.4125    0.0000 F   0  0  0  0  0  0  0  0  0  0  0  0
    5.7158   -1.6500    0.0000 C   0  0  0  0  0  0  0  0  0  0  0  0
    5.7158   -2.4750    0.0000 C   0  0  0  0  0  0  0  0  0  0  0  0
    6.4302   -2.8875    0.0000 C   0  0  0  0  0  0  0  0  0  0  0  0
    6.4302   -3.7125    0.0000 O   0  0  0  0  0  0  0  0  0  0  0  0
    7.1447   -2.4750    0.0000 N   0  0  0  0  0  0  0  0  0  0  0  0
    7.8592   -2.8875    0.0000 C   0  0  0  0  0  0  0  0  0  0  0  0
    8.5737   -2.4750    0.0000 C   0  0  0  0  0  0  0  0  0  0  0  0
    8.5737   -1.6500    0.0000 F   0  0  0  0  0  0  0  0  0  0  0  0
    9.2881   -2.8875    0.0000 C   0  0  0  0  0  0  0  0  0  0  0  0
    9.2881   -3.7125    0.0000 C   0  0  0  0  0  0  0  0  0  0  0  0
    8.5737   -4.1250    0.0000 C   0  0  0  0  0  0  0  0  0  0  0  0
    7.8592   -3.7125    0.0000 C   0  0  0  0  0  0  0  0  0  0  0  0
    7.1447   -4.1250    0.0000 Cl  0  0  0  0  0  0  0  0  0  0  0  0
  1  2  1  0  0  0  0
  2  3  1  0  0  0  0
  3  4  1  0  0  0  0
  4  5  1  0  0  0  0
  4  6  1  0  0  0  0
  6  7  1  0  0  0  0
  7  8  4  0  0  0  0
  8  9  4  0  0  0  0
  9 10  1  0  0  0  0
 10 11  4  0  0  0  0
 11 12  4  0  0  0  0
 12 13  1  0  0  0  0
 13 14  1  0  0  0  0
 13 15  1  0  0  0  0
 12 16  4  0  0  0  0
 16 17  1  0  0  0  0
 16 18  4  0  0  0  0
 10 18  4  0  0  0  0
 18 19  2  0  0  0  0
  9 20  4  0  0  0  0
 20 21  1  0  0  0  0
 20 22  4  0  0  0  0
 22 23  4  0  0  0  0
  7 23  4  0  0  0  0
 23 24  1  0  0  0  0
 24 25  2  0  0  0  0
 24 26  1  0  0  0  0
 26 27  1  0  0  0  0
 27 28  4  0  0  0  0
 28 29  1  0  0  0  0
 28 30  4  0  0  0  0
 30 31  4  0  0  0  0
 31 32  4  0  0  0  0
 32 33  4  0  0  0  0
 27 33  4  0  0  0  0
 33 34  1  0  0  0  0
M  END
> <IC50(uM)>
0.004999999999999999

> <Outcome>
1.0

> <BindingDB ID>
1098748; 972594

> <BindingDB MonomerID>
470473

> <BindingDB Ligand Name>
N-(2-chloro-6-fluorophenyl)-5-fluoro-4-{3-[(1S)-1-hydroxyethyl]-4-methyl-5-oxo-4,5-dihydro-1H-1,2,4-triazol-1-yl}-2-[(2S)-pentan-2-yloxy]benzamide::US10815215, Example 136::US11130745, Example 136; N-(2-chloro-6-fluorophenyl)-5-fluoro-4-{3-[(1S)-1-hydroxyethyl]-4-methyl-5-oxo-4,5-dihydro-1H-1,2,4-triazol-1-yl}-2-[(2S)-pentan-2-yloxy]benzamide::US10815215, Example 136

> <Curation/DataSource>
US Patent

> <Article DOI>
?

> <PMID>
?

> <Patent Number>
US11130745; US10815215

> <Authors>
Gradl, SN; Nguyen, D; Eis, K; Gunther, J; Stellfeld, T; Janzer, A; Christian, S; Muller, T; Sheikh, SE; Sykes, DB; Ferrara, SJ; Krober, M; Merz, C; Niehues, M; Schafer, M; Zimmermann, K; Nising, CF; Gradl, SN; Nguyen, D; Eis, K; Gunther, J; Stellfeld, T; Janzer, A; Christian, S; Muller, T; Sheikh, SE; Zhou, HJ; Zhao, C; Sykes, DB; Ferrara, SJ; Liu, K; Krober, M; Merz, C; Niehues, M; Schafer, M; Zimmermann, K; Nising, CF

> <Link to Ligand in BindingDB>
http://www.bindingdb.org/bind/chemsearch/marvin/MolStructure.jsp?monomerid=470473

> <Link to Ligand-Target Pair in BindingDB>
http://www.bindingdb.org/jsp/dbsearch/PrimarySearch_ki.jsp?energyterm=kJ/mole&tag=r21&monomerid=470473&enzyme=Dihydroorotate+dehydrogenase&column=ki&startPg=0&Increment=50&submit=Search

> <PubChem CID>
134469931

> <PubChem SID>
441609650

$$$$

  Mrv2115 07222212352D          

 20 22  0  0  0  0            999 V2000
   -2.0652   -3.2570    0.0000 O   0  0  0  0  0  0  0  0  0  0  0  0
   -1.4521   -2.7050    0.0000 C   0  0  0  0  0  0  0  0  0  0  0  0
   -1.6236   -1.8980    0.0000 O   0  0  0  0  0  0  0  0  0  0  0  0
   -0.6674   -2.9599    0.0000 C   0  0  0  0  0  0  0  0  0  0  0  0
   -0.4125   -3.7445    0.0000 C   0  0  0  0  0  0  0  0  0  0  0  0
   -0.8974   -4.4120    0.0000 O   0  0  0  0  0  0  0  0  0  0  0  0
    0.4125   -3.7445    0.0000 C   0  0  0  0  0  0  0  0  0  0  0  0
    0.6674   -2.9599    0.0000 S   0  0  0  0  0  0  0  0  0  0  0  0
    0.0000   -2.4750    0.0000 C   0  0  0  0  0  0  0  0  0  0  0  0
    0.0000   -1.6500    0.0000 N   0  0  0  0  0  0  0  0  0  0  0  0
    0.7145   -1.2375    0.0000 C   0  0  0  0  0  0  0  0  0  0  0  0
    0.7145   -0.4125    0.0000 C   0  0  0  0  0  0  0  0  0  0  0  0
    1.4289    0.0000    0.0000 C   0  0  0  0  0  0  0  0  0  0  0  0
    2.1434   -0.4125    0.0000 C   0  0  0  0  0  0  0  0  0  0  0  0
    2.8579    0.0000    0.0000 C   0  0  0  0  0  0  0  0  0  0  0  0
    3.5724   -0.4125    0.0000 C   0  0  0  0  0  0  0  0  0  0  0  0
    3.5724   -1.2375    0.0000 C   0  0  0  0  0  0  0  0  0  0  0  0
    2.8579   -1.6500    0.0000 C   0  0  0  0  0  0  0  0  0  0  0  0
    2.1434   -1.2375    0.0000 C   0  0  0  0  0  0  0  0  0  0  0  0
    1.4289   -1.6500    0.0000 C   0  0  0  0  0  0  0  0  0  0  0  0
  1  2  2  0  0  0  0
  2  3  1  0  0  0  0
  2  4  1  0  0  0  0
  4  5  4  0  0  0  0
  5  6  1  0  0  0  0
  5  7  4  0  0  0  0
  7  8  4  0  0  0  0
  8  9  4  0  0  0  0
  4  9  4  0  0  0  0
  9 10  1  0  0  0  0
 10 11  1  0  0  0  0
 11 12  4  0  0  0  0
 12 13  4  0  0  0  0
 13 14  4  0  0  0  0
 14 15  4  0  0  0  0
 15 16  4  0  0  0  0
 16 17  4  0  0  0  0
 17 18  4  0  0  0  0
 18 19  4  0  0  0  0
 14 19  4  0  0  0  0
 19 20  4  0  0  0  0
 11 20  4  0  0  0  0
M  END
> <IC50(uM)>
50.0

> <Outcome>
0.0

> <BindingDB ID>
51079164

> <BindingDB MonomerID>
50441272

> <BindingDB Ligand Name>
CHEMBL2431521

> <Curation/DataSource>
ChEMBL

> <Article DOI>
10.1021/jm400938g

> <PMID>
24073986

> <Patent Number>
?

> <Authors>
Xu, M; Zhu, J; Diao, Y; Zhou, H; Ren, X; Sun, D; Huang, J; Han, D; Zhao, Z; Zhu, L; Xu, Y; Li, H

> <Link to Ligand in BindingDB>
http://www.bindingdb.org/bind/chemsearch/marvin/MolStructure.jsp?monomerid=50441272

> <Link to Ligand-Target Pair in BindingDB>
http://www.bindingdb.org/jsp/dbsearch/PrimarySearch_ki.jsp?energyterm=kJ/mole&tag=r21&monomerid=50441272&enzyme=Dihydroorotate+dehydrogenase&column=ki&startPg=0&Increment=50&submit=Search

> <PubChem CID>
91898833

> <PubChem SID>
175453589

$$$$

  Mrv2115 07222212352D          

 23 25  0  0  0  0            999 V2000
    1.4289   -2.4750    0.0000 C   0  0  0  0  0  0  0  0  0  0  0  0
    1.4289   -1.6500    0.0000 C   0  0  0  0  0  0  0  0  0  0  0  0
    0.7145   -1.2375    0.0000 C   0  0  0  0  0  0  0  0  0  0  0  0
    0.7145   -0.4125    0.0000 C   0  0  0  0  0  0  0  0  0  0  0  0
    0.0000    0.0000    0.0000 Br  0  0  0  0  0  0  0  0  0  0  0  0
    1.4289    0.0000    0.0000 C   0  0  0  0  0  0  0  0  0  0  0  0
    2.1434   -0.4125    0.0000 C   0  0  0  0  0  0  0  0  0  0  0  0
    2.8579    0.0000    0.0000 C   0  0  0  0  0  0  0  0  0  0  0  0
    2.8579    0.8250    0.0000 C   0  0  0  0  0  0  0  0  0  0  0  0
    3.5724    1.2375    0.0000 O   0  0  0  0  0  0  0  0  0  0  0  0
    2.1434    1.2375    0.0000 O   0  0  0  0  0  0  0  0  0  0  0  0
    3.5724   -0.4125    0.0000 C   0  0  0  0  0  0  0  0  0  0  0  0
    4.2868   -0.0000    0.0000 O   0  0  0  0  0  0  0  0  0  0  0  0
    3.5724   -1.2375    0.0000 C   0  0  0  0  0  0  0  0  0  0  0  0
    4.2868   -1.6500    0.0000 C   0  0  0  0  0  0  0  0  0  0  0  0
    5.0013   -1.2375    0.0000 C   0  0  0  0  0  0  0  0  0  0  0  0
    5.7158   -1.6500    0.0000 C   0  0  0  0  0  0  0  0  0  0  0  0
    5.7158   -2.4750    0.0000 C   0  0  0  0  0  0  0  0  0  0  0  0
    6.4302   -2.8875    0.0000 Cl  0  0  0  0  0  0  0  0  0  0  0  0
    5.0013   -2.8875    0.0000 C   0  0  0  0  0  0  0  0  0  0  0  0
    4.2868   -2.4750    0.0000 C   0  0  0  0  0  0  0  0  0  0  0  0
    2.8579   -1.6500    0.0000 N   0  0  0  0  0  0  0  0  0  0  0  0
    2.1434   -1.2375    0.0000 C   0  0  0  0  0  0  0  0  0  0  0  0
  1  2  1  0  0  0  0
  2  3  4  0  0  0  0
  3  4  4  0  0  0  0
  4  5  1  0  0  0  0
  4  6  4  0  0  0  0
  6  7  4  0  0  0  0
  7  8  4  0  0  0  0
  8  9  1  0  0  0  0
  9 10  2  0  0  0  0
  9 11  1  0  0  0  0
  8 12  4  0  0  0  0
 12 13  1  0  0  0  0
 12 14  4  0  0  0  0
 14 15  1  0  0  0  0
 15 16  4  0  0  0  0
 16 17  4  0  0  0  0
 17 18  4  0  0  0  0
 18 19  1  0  0  0  0
 18 20  4  0  0  0  0
 20 21  4  0  0  0  0
 15 21  4  0  0  0  0
 14 22  4  0  0  0  0
 22 23  4  0  0  0  0
  2 23  4  0  0  0  0
  7 23  4  0  0  0  0
M  END
> <IC50(uM)>
41.0

> <Outcome>
0.0

> <BindingDB ID>
50841899

> <BindingDB MonomerID>
50201931

> <BindingDB Ligand Name>
6-bromo-2-(4-chlorophenyl)-3-hydroxy-8-methylquinoline-4-carboxylic acid::CHEMBL218051

> <Curation/DataSource>
ChEMBL

> <Article DOI>
10.1021/jm0602256

> <PMID>
17201408

> <Patent Number>
?

> <Authors>
Kaila, N; Janz, K; DeBernardo, S; Bedard, PW; Camphausen, RT; Tam, S; Tsao, DH; Keith, JC; Nickerson-Nutter, C; Shilling, A; Young-Sciame, R; Wang, Q

> <Link to Ligand in BindingDB>
http://www.bindingdb.org/bind/chemsearch/marvin/MolStructure.jsp?monomerid=50201931

> <Link to Ligand-Target Pair in BindingDB>
http://www.bindingdb.org/jsp/dbsearch/PrimarySearch_ki.jsp?energyterm=kJ/mole&tag=r21&monomerid=50201931&enzyme=Dihydroorotate+dehydrogenase&column=ki&startPg=0&Increment=50&submit=Search

> <PubChem CID>
16099971

> <PubChem SID>
104081582

$$$$

  Mrv2115 07222212352D          

 24 26  0  0  0  0            999 V2000
    2.1434   -2.8875    0.0000 C   0  0  0  0  0  0  0  0  0  0  0  0
    2.1434   -3.7125    0.0000 C   0  0  0  0  0  0  0  0  0  0  0  0
    1.4289   -4.1250    0.0000 C   0  0  0  0  0  0  0  0  0  0  0  0
    1.4289   -4.9500    0.0000 C   0  0  0  0  0  0  0  0  0  0  0  0
    2.1434   -5.3625    0.0000 C   0  0  0  0  0  0  0  0  0  0  0  0
    2.1434   -6.1875    0.0000 N   0  0  0  0  0  0  0  0  0  0  0  0
    1.4289   -6.6000    0.0000 C   0  0  0  0  0  0  0  0  0  0  0  0
    1.4289   -7.4250    0.0000 C   0  0  0  0  0  0  0  0  0  0  0  0
    0.7145   -7.8375    0.0000 C   0  0  0  0  0  0  0  0  0  0  0  0
    0.0000   -7.4250    0.0000 C   0  0  0  0  0  0  0  0  0  0  0  0
   -0.7145   -7.8375    0.0000 C   0  0  0  0  0  0  0  0  0  0  0  0
   -0.7145   -8.6625    0.0000 C   0  0  0  0  0  0  0  0  0  0  0  0
   -1.4289   -9.0750    0.0000 C   0  0  0  0  0  0  0  0  0  0  0  0
   -2.1434   -8.6625    0.0000 C   0  0  0  0  0  0  0  0  0  0  0  0
   -2.1434   -7.8375    0.0000 C   0  0  0  0  0  0  0  0  0  0  0  0
   -1.4289   -7.4250    0.0000 C   0  0  0  0  0  0  0  0  0  0  0  0
   -1.4289   -6.6000    0.0000 F   0  0  0  0  0  0  0  0  0  0  0  0
    0.0000   -6.6000    0.0000 N   0  0  0  0  0  0  0  0  0  0  0  0
    0.7145   -6.1875    0.0000 C   0  0  0  0  0  0  0  0  0  0  0  0
    2.8579   -4.9500    0.0000 C   0  0  0  0  0  0  0  0  0  0  0  0
    3.5724   -5.3625    0.0000 C   0  0  0  0  0  0  0  0  0  0  0  0
    4.2868   -4.9500    0.0000 O   0  0  0  0  0  0  0  0  0  0  0  0
    3.5724   -6.1875    0.0000 O   0  0  0  0  0  0  0  0  0  0  0  0
    2.8579   -4.1250    0.0000 C   0  0  0  0  0  0  0  0  0  0  0  0
  1  2  1  0  0  0  0
  2  3  4  0  0  0  0
  3  4  4  0  0  0  0
  4  5  4  0  0  0  0
  5  6  1  0  0  0  0
  6  7  1  0  0  0  0
  7  8  4  0  0  0  0
  8  9  4  0  0  0  0
  9 10  4  0  0  0  0
 10 11  1  0  0  0  0
 11 12  4  0  0  0  0
 12 13  4  0  0  0  0
 13 14  4  0  0  0  0
 14 15  4  0  0  0  0
 15 16  4  0  0  0  0
 11 16  4  0  0  0  0
 16 17  1  0  0  0  0
 10 18  4  0  0  0  0
 18 19  4  0  0  0  0
  7 19  4  0  0  0  0
  5 20  4  0  0  0  0
 20 21  1  0  0  0  0
 21 22  2  0  0  0  0
 21 23  1  0  0  0  0
 20 24  4  0  0  0  0
  2 24  4  0  0  0  0
M  END
> <IC50(uM)>
0.091

> <Outcome>
1.0

> <BindingDB ID>
219996

> <BindingDB MonomerID>
102466

> <BindingDB Ligand Name>
US8536165, 56

> <Curation/DataSource>
US Patent

> <Article DOI>
?

> <PMID>
?

> <Patent Number>
US8536165

> <Authors>
Castro Palomino Laria, JC; Terricabras Belart, E; Erra Sola, M; Navarro Romero, E; Fonquerna Pou, S; Cardus Figueras, A; Lozoya Toribio, ME

> <Link to Ligand in BindingDB>
http://www.bindingdb.org/bind/chemsearch/marvin/MolStructure.jsp?monomerid=102466

> <Link to Ligand-Target Pair in BindingDB>
http://www.bindingdb.org/jsp/dbsearch/PrimarySearch_ki.jsp?energyterm=kJ/mole&tag=r21&monomerid=102466&enzyme=Dihydroorotate+dehydrogenase&column=ki&startPg=0&Increment=50&submit=Search

> <PubChem CID>
46847607

> <PubChem SID>
172097757

$$$$

  Mrv2115 07222212352D          

 32 35  0  0  0  0            999 V2000
    0.7145   -2.8875    0.0000 C   0  0  0  0  0  0  0  0  0  0  0  0
    0.0000   -2.4750    0.0000 C   0  0  0  0  0  0  0  0  0  0  0  0
   -0.7145   -2.8875    0.0000 C   0  0  0  0  0  0  0  0  0  0  0  0
   -1.4289   -2.4750    0.0000 C   0  0  0  0  0  0  0  0  0  0  0  0
   -1.4289   -1.6500    0.0000 C   0  0  0  0  0  0  0  0  0  0  0  0
   -0.7145   -1.2375    0.0000 C   0  0  0  0  0  0  0  0  0  0  0  0
    0.0000   -1.6500    0.0000 C   0  0  0  0  0  0  0  0  0  0  0  0
    0.7145   -1.2375    0.0000 N   0  0  0  0  0  0  0  0  0  0  0  0
    0.7145   -0.4125    0.0000 C   0  0  0  0  0  0  0  0  0  0  0  0
    1.4289    0.0000    0.0000 C   0  0  0  0  0  0  0  0  0  0  0  0
    1.4289    0.8250    0.0000 C   0  0  0  0  0  0  0  0  0  0  0  0
    2.1434    1.2375    0.0000 C   0  0  0  0  0  0  0  0  0  0  0  0
    0.7145    1.2375    0.0000 C   0  0  0  0  0  0  0  0  0  0  0  0
    2.1434   -0.4125    0.0000 C   0  0  0  0  0  0  0  0  0  0  0  0
    2.8579    0.0000    0.0000 C   0  0  0  0  0  0  0  0  0  0  0  0
    3.5724   -0.4125    0.0000 C   0  0  0  0  0  0  0  0  0  0  0  0
    4.2868   -0.0000    0.0000 C   0  0  0  0  0  0  0  0  0  0  0  0
    4.3731    0.8205    0.0000 C   0  0  0  0  0  0  0  0  0  0  0  0
    5.1800    0.9920    0.0000 N   0  0  0  0  0  0  0  0  0  0  0  0
    5.5156    1.7457    0.0000 C   0  0  0  0  0  0  0  0  0  0  0  0
    5.5925    0.2775    0.0000 C   0  0  0  0  0  0  0  0  0  0  0  0
    6.4130    0.1913    0.0000 C   0  0  0  0  0  0  0  0  0  0  0  0
    7.2335    0.1051    0.0000 C   0  0  0  0  0  0  0  0  0  0  0  0
    6.3268   -0.6292    0.0000 C   0  0  0  0  0  0  0  0  0  0  0  0
    6.4993    1.0118    0.0000 O   0  0  0  0  0  0  0  0  0  0  0  0
    5.0405   -0.3356    0.0000 N   0  0  0  0  0  0  0  0  0  0  0  0
    3.5724   -1.2375    0.0000 C   0  0  0  0  0  0  0  0  0  0  0  0
    4.2868   -1.6500    0.0000 F   0  0  0  0  0  0  0  0  0  0  0  0
    2.8579   -1.6500    0.0000 C   0  0  0  0  0  0  0  0  0  0  0  0
    2.1434   -1.2375    0.0000 C   0  0  0  0  0  0  0  0  0  0  0  0
    1.4289   -1.6500    0.0000 C   0  0  0  0  0  0  0  0  0  0  0  0
    1.4289   -2.4750    0.0000 O   0  0  0  0  0  0  0  0  0  0  0  0
  1  2  1  0  0  0  0
  2  3  4  0  0  0  0
  3  4  4  0  0  0  0
  4  5  4  0  0  0  0
  5  6  4  0  0  0  0
  6  7  4  0  0  0  0
  2  7  4  0  0  0  0
  7  8  1  0  0  0  0
  8  9  4  0  0  0  0
  9 10  4  0  0  0  0
 10 11  1  0  0  0  0
 11 12  1  0  0  0  0
 11 13  1  0  0  0  0
 10 14  4  0  0  0  0
 14 15  4  0  0  0  0
 15 16  4  0  0  0  0
 16 17  1  0  0  0  0
 17 18  4  0  0  0  0
 18 19  4  0  0  0  0
 19 20  1  0  0  0  0
 19 21  4  0  0  0  0
 21 22  1  0  0  0  0
 22 23  1  0  0  0  0
 22 24  1  0  0  0  0
 22 25  1  0  0  0  0
 21 26  4  0  0  0  0
 17 26  4  0  0  0  0
 16 27  4  0  0  0  0
 27 28  1  0  0  0  0
 27 29  4  0  0  0  0
 29 30  4  0  0  0  0
 14 30  4  0  0  0  0
 30 31  4  0  0  0  0
  8 31  4  0  0  0  0
 31 32  2  0  0  0  0
M  END
> <IC50(uM)>
4.6E-4

> <Outcome>
1.0

> <BindingDB ID>
1121366; 1121385

> <BindingDB MonomerID>
530432

> <BindingDB Ligand Name>
7-Fluoro-6-(2-(2-hydroxypropan-2-yl)-1-methyl-1H-imidazol-4-yl)-4-isopropyl-2- (o-tolyl)isoquinolin-1(2H)-one.::WO2022070068, Example 23::WO2022070068, Example 4

> <Curation/DataSource>
Curated from the literature by BindingDB

> <Article DOI>
?

> <PMID>
WO2022070068

> <Patent Number>
?

> <Authors>
Lindsey, D; Scott, K; Zhuming, Z

> <Link to Ligand in BindingDB>
http://www.bindingdb.org/bind/chemsearch/marvin/MolStructure.jsp?monomerid=530432

> <Link to Ligand-Target Pair in BindingDB>
http://www.bindingdb.org/jsp/dbsearch/PrimarySearch_ki.jsp?energyterm=kJ/mole&tag=r21&monomerid=530432&enzyme=Dihydroorotate+dehydrogenase&column=ki&startPg=0&Increment=50&submit=Search

> <PubChem CID>
?

> <PubChem SID>
?

$$$$

  Mrv2115 07222212352D          

 31 32  0  0  0  0            999 V2000
   -2.1434   -1.2375    0.0000 C   0  0  0  0  0  0  0  0  0  0  0  0
   -1.4289   -1.6500    0.0000 C   0  0  0  0  0  0  0  0  0  0  0  0
   -0.7145   -1.2375    0.0000 C   0  0  0  0  0  0  0  0  0  0  0  0
    0.0000   -1.6500    0.0000 C   0  0  0  0  0  0  0  0  0  0  0  0
    0.0000   -2.4750    0.0000 C   0  0  0  0  0  0  0  0  0  0  0  0
    0.7145   -1.2375    0.0000 O   0  0  0  0  0  0  0  0  0  0  0  0
    0.7145   -0.4125    0.0000 C   0  0  0  0  0  0  0  0  0  0  0  0
    0.0000    0.0000    0.0000 C   0  0  0  0  0  0  0  0  0  0  0  0
    0.0000    0.8250    0.0000 C   0  0  0  0  0  0  0  0  0  0  0  0
   -0.7145    1.2375    0.0000 N   0  0  0  0  0  0  0  0  0  0  0  0
   -1.4681    0.9019    0.0000 N   0  0  0  0  0  0  0  0  0  0  0  0
   -2.0202    1.5150    0.0000 C   0  0  0  0  0  0  0  0  0  0  0  0
   -2.8407    1.4288    0.0000 C   0  0  0  0  0  0  0  0  0  0  0  0
   -3.3256    2.0962    0.0000 C   0  0  0  0  0  0  0  0  0  0  0  0
   -3.1762    0.6751    0.0000 O   0  0  0  0  0  0  0  0  0  0  0  0
   -1.6077    2.2295    0.0000 N   0  0  0  0  0  0  0  0  0  0  0  0
   -1.9432    2.9832    0.0000 C   0  0  0  0  0  0  0  0  0  0  0  0
   -0.8007    2.0580    0.0000 C   0  0  0  0  0  0  0  0  0  0  0  0
   -0.1876    2.6100    0.0000 O   0  0  0  0  0  0  0  0  0  0  0  0
    0.7145    1.2375    0.0000 C   0  0  0  0  0  0  0  0  0  0  0  0
    0.7145    2.0625    0.0000 F   0  0  0  0  0  0  0  0  0  0  0  0
    1.4289    0.8250    0.0000 C   0  0  0  0  0  0  0  0  0  0  0  0
    1.4289    0.0000    0.0000 C   0  0  0  0  0  0  0  0  0  0  0  0
    2.1434   -0.4125    0.0000 C   0  0  0  0  0  0  0  0  0  0  0  0
    2.8579    0.0000    0.0000 O   0  0  0  0  0  0  0  0  0  0  0  0
    2.1434   -1.2375    0.0000 N   0  0  0  0  0  0  0  0  0  0  0  0
    2.8579   -1.6500    0.0000 C   0  0  0  0  0  0  0  0  0  0  0  0
    2.8579   -2.4750    0.0000 C   0  0  0  0  0  0  0  0  0  0  0  0
    3.5724   -2.8875    0.0000 C   0  0  0  0  0  0  0  0  0  0  0  0
    3.5724   -1.2375    0.0000 C   0  0  0  0  0  0  0  0  0  0  0  0
    3.5724   -0.4125    0.0000 C   0  0  0  0  0  0  0  0  0  0  0  0
  1  2  1  0  0  0  0
  2  3  1  0  0  0  0
  3  4  1  0  0  0  0
  4  5  1  0  0  0  0
  4  6  1  0  0  0  0
  6  7  1  0  0  0  0
  7  8  4  0  0  0  0
  8  9  4  0  0  0  0
  9 10  1  0  0  0  0
 10 11  4  0  0  0  0
 11 12  4  0  0  0  0
 12 13  1  0  0  0  0
 13 14  1  0  0  0  0
 13 15  1  0  0  0  0
 12 16  4  0  0  0  0
 16 17  1  0  0  0  0
 16 18  4  0  0  0  0
 10 18  4  0  0  0  0
 18 19  2  0  0  0  0
  9 20  4  0  0  0  0
 20 21  1  0  0  0  0
 20 22  4  0  0  0  0
 22 23  4  0  0  0  0
  7 23  4  0  0  0  0
 23 24  1  0  0  0  0
 24 25  2  0  0  0  0
 24 26  1  0  0  0  0
 26 27  1  0  0  0  0
 27 28  1  0  0  0  0
 28 29  1  0  0  0  0
 27 30  1  0  0  0  0
 30 31  1  0  0  0  0
M  END
> <IC50(uM)>
0.055

> <Outcome>
1.0

> <BindingDB ID>
1098791

> <BindingDB MonomerID>
520342

> <BindingDB Ligand Name>
5-fluoro-4-[3-(1-hydroxyethyl)-4-methyl-5-oxo-4,5-dihydro-1H-1,2,4-triazol-1-yl]-N-(pentan-3-yl)-2-[(2S)-pentan-2-yloxy]benzamide::US11130745, Example 174

> <Curation/DataSource>
US Patent

> <Article DOI>
?

> <PMID>
?

> <Patent Number>
US11130745

> <Authors>
Gradl, SN; Nguyen, D; Eis, K; Gunther, J; Stellfeld, T; Janzer, A; Christian, S; Muller, T; Sheikh, SE; Sykes, DB; Ferrara, SJ; Krober, M; Merz, C; Niehues, M; Schafer, M; Zimmermann, K; Nising, CF

> <Link to Ligand in BindingDB>
http://www.bindingdb.org/bind/chemsearch/marvin/MolStructure.jsp?monomerid=520342

> <Link to Ligand-Target Pair in BindingDB>
http://www.bindingdb.org/jsp/dbsearch/PrimarySearch_ki.jsp?energyterm=kJ/mole&tag=r21&monomerid=520342&enzyme=Dihydroorotate+dehydrogenase&column=ki&startPg=0&Increment=50&submit=Search

> <PubChem CID>
134469978

> <PubChem SID>
461597787

$$$$

  Mrv2115 07222212352D          

 23 24  0  0  0  0            999 V2000
    1.4289    0.0000    0.0000 C   0  0  0  0  0  0  0  0  0  0  0  0
    2.1434   -0.4125    0.0000 C   0  0  0  0  0  0  0  0  0  0  0  0
    2.1434   -1.2375    0.0000 C   0  0  0  0  0  0  0  0  0  0  0  0
    2.8579   -1.6500    0.0000 O   0  0  0  0  0  0  0  0  0  0  0  0
    1.4289   -1.6500    0.0000 N   0  0  0  0  0  0  0  0  0  0  0  0
    1.4289   -2.4750    0.0000 C   0  0  0  0  0  0  0  0  0  0  0  0
    2.1434   -2.8875    0.0000 C   0  0  0  0  0  0  0  0  0  0  0  0
    2.1434   -3.7125    0.0000 C   0  0  0  0  0  0  0  0  0  0  0  0
    1.4289   -4.1250    0.0000 C   0  0  0  0  0  0  0  0  0  0  0  0
    1.4289   -4.9500    0.0000 N   0  0  0  0  0  0  0  0  0  0  0  0
    0.7145   -5.3625    0.0000 C   0  0  0  0  0  0  0  0  0  0  0  0
    2.1434   -5.3625    0.0000 C   0  0  0  0  0  0  0  0  0  0  0  0
    2.1434   -6.1875    0.0000 C   0  0  0  0  0  0  0  0  0  0  0  0
    2.8579   -6.6000    0.0000 C   0  0  0  0  0  0  0  0  0  0  0  0
    2.8579   -7.4250    0.0000 C   0  0  0  0  0  0  0  0  0  0  0  0
    2.1434   -7.8375    0.0000 C   0  0  0  0  0  0  0  0  0  0  0  0
    1.4289   -7.4250    0.0000 N   0  0  0  0  0  0  0  0  0  0  0  0
    1.4289   -6.6000    0.0000 C   0  0  0  0  0  0  0  0  0  0  0  0
    0.7145   -3.7125    0.0000 C   0  0  0  0  0  0  0  0  0  0  0  0
    0.7145   -2.8875    0.0000 C   0  0  0  0  0  0  0  0  0  0  0  0
    0.0000   -2.4750    0.0000 C   0  0  0  0  0  0  0  0  0  0  0  0
    0.0000   -1.6500    0.0000 O   0  0  0  0  0  0  0  0  0  0  0  0
   -0.7145   -2.8875    0.0000 O   0  0  0  0  0  0  0  0  0  0  0  0
  1  2  1  0  0  0  0
  2  3  1  0  0  0  0
  3  4  2  0  0  0  0
  3  5  1  0  0  0  0
  5  6  1  0  0  0  0
  6  7  4  0  0  0  0
  7  8  4  0  0  0  0
  8  9  4  0  0  0  0
  9 10  1  0  0  0  0
 10 11  1  0  0  0  0
 10 12  1  0  0  0  0
 12 13  1  0  0  0  0
 13 14  4  0  0  0  0
 14 15  4  0  0  0  0
 15 16  4  0  0  0  0
 16 17  4  0  0  0  0
 17 18  4  0  0  0  0
 13 18  4  0  0  0  0
  9 19  4  0  0  0  0
 19 20  4  0  0  0  0
  6 20  4  0  0  0  0
 20 21  1  0  0  0  0
 21 22  2  0  0  0  0
 21 23  1  0  0  0  0
M  END
> <IC50(uM)>
5.5

> <Outcome>
0.0

> <BindingDB ID>
50565530

> <BindingDB MonomerID>
50313602

> <BindingDB Ligand Name>
5-(methyl(pyridin-3-ylmethyl)amino)-2-propionamidobenzoic acid::5-[methyl(pyridin-3-ylmethyl)amino]-2-(propanoylamino)benzoic acid::CHEMBL1084927

> <Curation/DataSource>
ChEMBL

> <Article DOI>
10.1016/j.bmcl.2010.01.115

> <PMID>
20153645

> <Patent Number>
?

> <Authors>
McLean, LR; Zhang, Y; Degnen, W; Peppard, J; Cabel, D; Zou, C; Tsay, JT; Subramaniam, A; Vaz, RJ; Li, Y

> <Link to Ligand in BindingDB>
http://www.bindingdb.org/bind/chemsearch/marvin/MolStructure.jsp?monomerid=50313602

> <Link to Ligand-Target Pair in BindingDB>
http://www.bindingdb.org/jsp/dbsearch/PrimarySearch_ki.jsp?energyterm=kJ/mole&tag=r21&monomerid=50313602&enzyme=Dihydroorotate+dehydrogenase&column=ki&startPg=0&Increment=50&submit=Search

> <PubChem CID>
44631846

> <PubChem SID>
104147963

$$$$

  Mrv2115 07222212352D          

 30 31  0  0  0  0            999 V2000
    0.0000   -4.9500    0.0000 C   0  0  0  0  0  0  0  0  0  0  0  0
    0.7145   -4.5375    0.0000 C   0  0  0  0  0  0  0  0  0  0  0  0
    0.7145   -3.7125    0.0000 C   0  0  0  0  0  0  0  0  0  0  0  0
    1.4289   -3.3000    0.0000 C   0  0  0  0  0  0  0  0  0  0  0  0
    2.1434   -3.7125    0.0000 C   0  0  0  0  0  0  0  0  0  0  0  0
    1.4289   -2.4750    0.0000 O   0  0  0  0  0  0  0  0  0  0  0  0
    0.7145   -2.0625    0.0000 C   0  0  0  0  0  0  0  0  0  0  0  0
    0.0000   -2.4750    0.0000 C   0  0  0  0  0  0  0  0  0  0  0  0
   -0.7145   -2.0625    0.0000 C   0  0  0  0  0  0  0  0  0  0  0  0
   -1.4289   -2.4750    0.0000 N   0  0  0  0  0  0  0  0  0  0  0  0
   -1.5152   -3.2955    0.0000 N   0  0  0  0  0  0  0  0  0  0  0  0
   -2.3221   -3.4670    0.0000 C   0  0  0  0  0  0  0  0  0  0  0  0
   -2.6577   -4.2207    0.0000 C   0  0  0  0  0  0  0  0  0  0  0  0
   -3.4782   -4.3069    0.0000 C   0  0  0  0  0  0  0  0  0  0  0  0
   -2.1728   -4.8881    0.0000 C   0  0  0  0  0  0  0  0  0  0  0  0
   -2.7346   -2.7525    0.0000 N   0  0  0  0  0  0  0  0  0  0  0  0
   -3.5551   -2.6663    0.0000 C   0  0  0  0  0  0  0  0  0  0  0  0
   -2.1826   -2.1394    0.0000 C   0  0  0  0  0  0  0  0  0  0  0  0
   -2.3541   -1.3325    0.0000 O   0  0  0  0  0  0  0  0  0  0  0  0
   -0.7145   -1.2375    0.0000 C   0  0  0  0  0  0  0  0  0  0  0  0
   -1.4289   -0.8250    0.0000 F   0  0  0  0  0  0  0  0  0  0  0  0
    0.0000   -0.8250    0.0000 C   0  0  0  0  0  0  0  0  0  0  0  0
    0.7145   -1.2375    0.0000 C   0  0  0  0  0  0  0  0  0  0  0  0
    1.4289   -0.8250    0.0000 C   0  0  0  0  0  0  0  0  0  0  0  0
    1.4289    0.0000    0.0000 O   0  0  0  0  0  0  0  0  0  0  0  0
    2.1434   -1.2375    0.0000 N   0  0  0  0  0  0  0  0  0  0  0  0
    2.8579   -0.8250    0.0000 C   0  0  0  0  0  0  0  0  0  0  0  0
    2.8579    0.0000    0.0000 C   0  0  0  0  0  0  0  0  0  0  0  0
    3.5724   -1.2375    0.0000 C   0  0  0  0  0  0  0  0  0  0  0  0
    3.5724   -2.0625    0.0000 O   0  0  0  0  0  0  0  0  0  0  0  0
  1  2  1  0  0  0  0
  2  3  1  0  0  0  0
  3  4  1  0  0  0  0
  4  5  1  0  0  0  0
  4  6  1  0  0  0  0
  6  7  1  0  0  0  0
  7  8  4  0  0  0  0
  8  9  4  0  0  0  0
  9 10  1  0  0  0  0
 10 11  4  0  0  0  0
 11 12  4  0  0  0  0
 12 13  1  0  0  0  0
 13 14  1  0  0  0  0
 13 15  1  0  0  0  0
 12 16  4  0  0  0  0
 16 17  1  0  0  0  0
 16 18  4  0  0  0  0
 10 18  4  0  0  0  0
 18 19  2  0  0  0  0
  9 20  4  0  0  0  0
 20 21  1  0  0  0  0
 20 22  4  0  0  0  0
 22 23  4  0  0  0  0
  7 23  4  0  0  0  0
 23 24  1  0  0  0  0
 24 25  2  0  0  0  0
 24 26  1  0  0  0  0
 26 27  1  0  0  0  0
 27 28  1  0  0  0  0
 27 29  1  0  0  0  0
 29 30  1  0  0  0  0
M  END
> <IC50(uM)>
1.8

> <Outcome>
0.0

> <BindingDB ID>
972541; 1098695; 1098694; 972540

> <BindingDB MonomerID>
470415

> <BindingDB Ligand Name>
5-fluoro-N-[(2R)-1-hydroxypropan-2-yl]-4-[4-methyl-5-oxo-3-(propan-2-yl)-4,5-dihydro-1H-1,2,4-triazol-1-yl]-2-[(2S)-pentan-2-yloxy]benzamide::US10815215, Example 74; 5-fluoro-N-[(2R)-1-hydroxypropan-2-yl]-4-[4-methyl-5-oxo-3-(propan-2-yl)-4,5-dihydro-1H-1,2,4-triazol-1-yl]-2-[(2S)-pentan-2-yloxy]benzamide::US10815215, Example 74::US11130745, Example 74

> <Curation/DataSource>
US Patent

> <Article DOI>
?

> <PMID>
?

> <Patent Number>
US10815215; US11130745

> <Authors>
Gradl, SN; Nguyen, D; Eis, K; Gunther, J; Stellfeld, T; Janzer, A; Christian, S; Muller, T; Sheikh, SE; Zhou, HJ; Zhao, C; Sykes, DB; Ferrara, SJ; Liu, K; Krober, M; Merz, C; Niehues, M; Schafer, M; Zimmermann, K; Nising, CF; Gradl, SN; Nguyen, D; Eis, K; Gunther, J; Stellfeld, T; Janzer, A; Christian, S; Muller, T; Sheikh, SE; Sykes, DB; Ferrara, SJ; Krober, M; Merz, C; Niehues, M; Schafer, M; Zimmermann, K; Nising, CF

> <Link to Ligand in BindingDB>
http://www.bindingdb.org/bind/chemsearch/marvin/MolStructure.jsp?monomerid=470415

> <Link to Ligand-Target Pair in BindingDB>
http://www.bindingdb.org/jsp/dbsearch/PrimarySearch_ki.jsp?energyterm=kJ/mole&tag=r21&monomerid=470415&enzyme=Dihydroorotate+dehydrogenase&column=ki&startPg=0&Increment=50&submit=Search

> <PubChem CID>
134470252

> <PubChem SID>
441609592

$$$$

  Mrv2115 07222212352D          

 23 24  0  0  0  0            999 V2000
   -0.1067   -0.0616    0.0000 C   0  0  0  0  0  0  0  0  0  0  0  0
    0.6078   -0.4741    0.0000 C   0  0  0  0  0  0  0  0  0  0  0  0
    1.3222   -0.0616    0.0000 O   0  0  0  0  0  0  0  0  0  0  0  0
    2.0367   -0.4741    0.0000 C   0  0  0  0  0  0  0  0  0  0  0  0
    2.7512   -0.0616    0.0000 O   0  0  0  0  0  0  0  0  0  0  0  0
    2.0367   -1.2991    0.0000 C   0  0  0  0  0  0  0  0  0  0  0  0
    1.3693   -1.7840    0.0000 C   0  0  0  0  0  0  0  0  0  0  0  0
    0.5846   -1.5291    0.0000 O   0  0  0  0  0  0  0  0  0  0  0  0
    1.6242   -2.5687    0.0000 C   0  0  0  0  0  0  0  0  0  0  0  0
    2.4492   -2.5687    0.0000 S   0  0  0  0  0  0  0  0  0  0  0  0
    2.7041   -1.7840    0.0000 C   0  0  0  0  0  0  0  0  0  0  0  0
    3.4888   -1.5291    0.0000 N   0  0  0  0  0  0  0  0  0  0  0  0
    4.1019   -2.0811    0.0000 C   0  0  0  0  0  0  0  0  0  0  0  0
    4.8865   -1.8262    0.0000 C   0  0  0  0  0  0  0  0  0  0  0  0
    5.4996   -2.3782    0.0000 C   0  0  0  0  0  0  0  0  0  0  0  0
    5.3281   -3.1852    0.0000 C   0  0  0  0  0  0  0  0  0  0  0  0
    5.9411   -3.7372    0.0000 Br  0  0  0  0  0  0  0  0  0  0  0  0
    4.5434   -3.4401    0.0000 C   0  0  0  0  0  0  0  0  0  0  0  0
    4.3719   -4.2471    0.0000 C   0  0  0  0  0  0  0  0  0  0  0  0
    4.2004   -5.0541    0.0000 F   0  0  0  0  0  0  0  0  0  0  0  0
    3.5649   -4.0756    0.0000 F   0  0  0  0  0  0  0  0  0  0  0  0
    5.1789   -4.4186    0.0000 F   0  0  0  0  0  0  0  0  0  0  0  0
    3.9303   -2.8881    0.0000 C   0  0  0  0  0  0  0  0  0  0  0  0
  1  2  1  0  0  0  0
  2  3  1  0  0  0  0
  3  4  1  0  0  0  0
  4  5  2  0  0  0  0
  4  6  1  0  0  0  0
  6  7  4  0  0  0  0
  7  8  1  0  0  0  0
  7  9  4  0  0  0  0
  9 10  4  0  0  0  0
 10 11  4  0  0  0  0
  6 11  4  0  0  0  0
 11 12  1  0  0  0  0
 12 13  1  0  0  0  0
 13 14  4  0  0  0  0
 14 15  4  0  0  0  0
 15 16  4  0  0  0  0
 16 17  1  0  0  0  0
 16 18  4  0  0  0  0
 18 19  1  0  0  0  0
 19 20  1  0  0  0  0
 19 21  1  0  0  0  0
 19 22  1  0  0  0  0
 18 23  4  0  0  0  0
 13 23  4  0  0  0  0
M  END
> <IC50(uM)>
50.0

> <Outcome>
0.0

> <BindingDB ID>
51079178

> <BindingDB MonomerID>
50441286

> <BindingDB Ligand Name>
CHEMBL2431507

> <Curation/DataSource>
ChEMBL

> <Article DOI>
10.1021/jm400938g

> <PMID>
24073986

> <Patent Number>
?

> <Authors>
Xu, M; Zhu, J; Diao, Y; Zhou, H; Ren, X; Sun, D; Huang, J; Han, D; Zhao, Z; Zhu, L; Xu, Y; Li, H

> <Link to Ligand in BindingDB>
http://www.bindingdb.org/bind/chemsearch/marvin/MolStructure.jsp?monomerid=50441286

> <Link to Ligand-Target Pair in BindingDB>
http://www.bindingdb.org/jsp/dbsearch/PrimarySearch_ki.jsp?energyterm=kJ/mole&tag=r21&monomerid=50441286&enzyme=Dihydroorotate+dehydrogenase&column=ki&startPg=0&Increment=50&submit=Search

> <PubChem CID>
91898847

> <PubChem SID>
175453603

$$$$

  Mrv2115 07222212352D          

 25 27  0  0  0  0            999 V2000
    1.4289   -1.6500    0.0000 C   0  0  0  0  0  0  0  0  0  0  0  0
    0.7145   -1.2375    0.0000 N   0  0  0  0  0  0  0  0  0  0  0  0
    0.0000   -1.6500    0.0000 C   0  0  0  0  0  0  0  0  0  0  0  0
   -0.7145   -1.2375    0.0000 O   0  0  0  0  0  0  0  0  0  0  0  0
    0.0000   -2.4750    0.0000 C   0  0  0  0  0  0  0  0  0  0  0  0
    0.7145   -2.8875    0.0000 C   0  0  0  0  0  0  0  0  0  0  0  0
    0.7145   -3.7125    0.0000 C   0  0  0  0  0  0  0  0  0  0  0  0
    0.0000   -4.1250    0.0000 C   0  0  0  0  0  0  0  0  0  0  0  0
    0.0000   -4.9500    0.0000 C   0  0  0  0  0  0  0  0  0  0  0  0
    0.7145   -5.3625    0.0000 C   0  0  0  0  0  0  0  0  0  0  0  0
    0.7145   -6.1875    0.0000 C   0  0  0  0  0  0  0  0  0  0  0  0
    0.0000   -6.6000    0.0000 C   0  0  0  0  0  0  0  0  0  0  0  0
   -0.7145   -6.1875    0.0000 C   0  0  0  0  0  0  0  0  0  0  0  0
   -0.7145   -5.3625    0.0000 C   0  0  0  0  0  0  0  0  0  0  0  0
   -0.7145   -3.7125    0.0000 C   0  0  0  0  0  0  0  0  0  0  0  0
   -0.7145   -2.8875    0.0000 C   0  0  0  0  0  0  0  0  0  0  0  0
    0.7145   -0.4125    0.0000 C   0  0  0  0  0  0  0  0  0  0  0  0
    0.0000    0.0000    0.0000 C   0  0  0  0  0  0  0  0  0  0  0  0
    0.0000    0.8250    0.0000 C   0  0  0  0  0  0  0  0  0  0  0  0
    0.7145    1.2375    0.0000 C   0  0  0  0  0  0  0  0  0  0  0  0
    1.4289    0.8250    0.0000 C   0  0  0  0  0  0  0  0  0  0  0  0
    1.4289   -0.0000    0.0000 C   0  0  0  0  0  0  0  0  0  0  0  0
    2.1434   -0.4125    0.0000 C   0  0  0  0  0  0  0  0  0  0  0  0
    2.1434   -1.2375    0.0000 O   0  0  0  0  0  0  0  0  0  0  0  0
    2.8579   -0.0000    0.0000 O   0  0  0  0  0  0  0  0  0  0  0  0
  1  2  1  0  0  0  0
  2  3  1  0  0  0  0
  3  4  2  0  0  0  0
  3  5  1  0  0  0  0
  5  6  4  0  0  0  0
  6  7  4  0  0  0  0
  7  8  4  0  0  0  0
  8  9  1  0  0  0  0
  9 10  4  0  0  0  0
 10 11  4  0  0  0  0
 11 12  4  0  0  0  0
 12 13  4  0  0  0  0
 13 14  4  0  0  0  0
  9 14  4  0  0  0  0
  8 15  4  0  0  0  0
 15 16  4  0  0  0  0
  5 16  4  0  0  0  0
  2 17  1  0  0  0  0
 17 18  4  0  0  0  0
 18 19  4  0  0  0  0
 19 20  4  0  0  0  0
 20 21  4  0  0  0  0
 21 22  4  0  0  0  0
 17 22  4  0  0  0  0
 22 23  1  0  0  0  0
 23 24  2  0  0  0  0
 23 25  1  0  0  0  0
M  END
> <IC50(uM)>
200.0

> <Outcome>
0.0

> <BindingDB ID>
29198

> <BindingDB MonomerID>
16093

> <BindingDB Ligand Name>
2-[(biphenyl-4-ylcarbonyl)(methyl)amino]benzoic acid::2-[methyl(4-phenylbenzene)amido]benzoic acid::Inhibitor 1

> <Curation/DataSource>
Curated from the literature by BindingDB

> <Article DOI>
10.1016/j.bmcl.2005.09.045

> <PMID>
16236496

> <Patent Number>
?

> <Authors>
Heikkila, T; Thirumalairajan, S; Davies, M; Parsons, MR; McConkey, AG; Fishwick, CW; Johnson, AP

> <Link to Ligand in BindingDB>
http://www.bindingdb.org/bind/chemsearch/marvin/MolStructure.jsp?monomerid=16093

> <Link to Ligand-Target Pair in BindingDB>
http://www.bindingdb.org/jsp/dbsearch/PrimarySearch_ki.jsp?energyterm=kJ/mole&tag=r21&monomerid=16093&enzyme=Dihydroorotate+dehydrogenase&column=ki&startPg=0&Increment=50&submit=Search

> <PubChem CID>
11530041

> <PubChem SID>
46516354

$$$$

  Mrv2115 07222212352D          

 29 32  0  0  0  0            999 V2000
    4.0668    2.3479    0.0000 C   0  0  0  0  0  0  0  0  0  0  0  0
    3.3523    1.9354    0.0000 C   0  0  0  0  0  0  0  0  0  0  0  0
    3.3523    1.1104    0.0000 C   0  0  0  0  0  0  0  0  0  0  0  0
    2.6378    0.6979    0.0000 C   0  0  0  0  0  0  0  0  0  0  0  0
    2.6378   -0.1271    0.0000 C   0  0  0  0  0  0  0  0  0  0  0  0
    1.9233   -0.5396    0.0000 O   0  0  0  0  0  0  0  0  0  0  0  0
    3.3523   -0.5396    0.0000 O   0  0  0  0  0  0  0  0  0  0  0  0
    1.9233    1.1104    0.0000 C   0  0  0  0  0  0  0  0  0  0  0  0
    1.1387    0.8555    0.0000 N   0  0  0  0  0  0  0  0  0  0  0  0
    0.6538    1.5229    0.0000 C   0  0  0  0  0  0  0  0  0  0  0  0
   -0.1712    1.5229    0.0000 C   0  0  0  0  0  0  0  0  0  0  0  0
   -0.5837    0.8085    0.0000 C   0  0  0  0  0  0  0  0  0  0  0  0
   -0.1712    0.0940    0.0000 F   0  0  0  0  0  0  0  0  0  0  0  0
   -1.4087    0.8085    0.0000 C   0  0  0  0  0  0  0  0  0  0  0  0
   -1.8212    0.0940    0.0000 F   0  0  0  0  0  0  0  0  0  0  0  0
   -1.8212    1.5229    0.0000 C   0  0  0  0  0  0  0  0  0  0  0  0
   -2.6462    1.5229    0.0000 C   0  0  0  0  0  0  0  0  0  0  0  0
   -3.0587    0.8085    0.0000 C   0  0  0  0  0  0  0  0  0  0  0  0
   -3.8837    0.8085    0.0000 C   0  0  0  0  0  0  0  0  0  0  0  0
   -4.2962    1.5229    0.0000 C   0  0  0  0  0  0  0  0  0  0  0  0
   -3.8837    2.2374    0.0000 N   0  0  0  0  0  0  0  0  0  0  0  0
   -3.0587    2.2374    0.0000 C   0  0  0  0  0  0  0  0  0  0  0  0
   -1.4087    2.2374    0.0000 C   0  0  0  0  0  0  0  0  0  0  0  0
   -1.8212    2.9519    0.0000 F   0  0  0  0  0  0  0  0  0  0  0  0
   -0.5837    2.2374    0.0000 C   0  0  0  0  0  0  0  0  0  0  0  0
   -0.1712    2.9519    0.0000 F   0  0  0  0  0  0  0  0  0  0  0  0
    1.1387    2.1904    0.0000 N   0  0  0  0  0  0  0  0  0  0  0  0
    1.9233    1.9354    0.0000 C   0  0  0  0  0  0  0  0  0  0  0  0
    2.6378    2.3479    0.0000 C   0  0  0  0  0  0  0  0  0  0  0  0
  1  2  1  0  0  0  0
  2  3  4  0  0  0  0
  3  4  4  0  0  0  0
  4  5  1  0  0  0  0
  5  6  2  0  0  0  0
  5  7  1  0  0  0  0
  4  8  4  0  0  0  0
  8  9  4  0  0  0  0
  9 10  4  0  0  0  0
 10 11  1  0  0  0  0
 11 12  4  0  0  0  0
 12 13  1  0  0  0  0
 12 14  4  0  0  0  0
 14 15  1  0  0  0  0
 14 16  4  0  0  0  0
 16 17  1  0  0  0  0
 17 18  4  0  0  0  0
 18 19  4  0  0  0  0
 19 20  4  0  0  0  0
 20 21  4  0  0  0  0
 21 22  4  0  0  0  0
 17 22  4  0  0  0  0
 16 23  4  0  0  0  0
 23 24  1  0  0  0  0
 23 25  4  0  0  0  0
 11 25  4  0  0  0  0
 25 26  1  0  0  0  0
 10 27  4  0  0  0  0
 27 28  4  0  0  0  0
  8 28  4  0  0  0  0
 28 29  4  0  0  0  0
  2 29  4  0  0  0  0
M  STY  1   1 DAT
M  SAL   1  1  27
M  SDT   1 MRV_IMPLICIT_H                                        
M  SDD   1     0.5304   -0.4125    DR    ALL  0       0  
M  SED   1 IMPL_H1
M  END
> <IC50(uM)>
0.032

> <Outcome>
1.0

> <BindingDB ID>
297843

> <BindingDB MonomerID>
155499

> <BindingDB Ligand Name>
US9006454, I141

> <Curation/DataSource>
US Patent

> <Article DOI>
?

> <PMID>
?

> <Patent Number>
US9006454

> <Authors>
Thunuguntla, SS; Subramanya, H; Kunnam, SR; Sanivaru Vijay, SR; Bingi, C; Kusanur, R; Schwarz, M; Arlt, M

> <Link to Ligand in BindingDB>
http://www.bindingdb.org/bind/chemsearch/marvin/MolStructure.jsp?monomerid=155499

> <Link to Ligand-Target Pair in BindingDB>
http://www.bindingdb.org/jsp/dbsearch/PrimarySearch_ki.jsp?energyterm=kJ/mole&tag=r21&monomerid=155499&enzyme=Dihydroorotate+dehydrogenase&column=ki&startPg=0&Increment=50&submit=Search

> <PubChem CID>
58073834

> <PubChem SID>
253658436

$$$$

  Mrv2115 07222212352D          

 31 34  0  0  0  0            999 V2000
    4.7079    3.7125    0.0000 C   0  0  0  0  0  0  0  0  0  0  0  0
    3.9934    3.3000    0.0000 O   0  0  0  0  0  0  0  0  0  0  0  0
    3.9934    2.4750    0.0000 N   0  0  0  0  0  0  0  0  0  0  0  0
    3.2789    2.0625    0.0000 C   0  0  0  0  0  0  0  0  0  0  0  0
    2.5645    2.4750    0.0000 O   0  0  0  0  0  0  0  0  0  0  0  0
    3.2789    1.2375    0.0000 C   0  0  0  0  0  0  0  0  0  0  0  0
    3.9934    0.8250    0.0000 C   0  0  0  0  0  0  0  0  0  0  0  0
    3.9934    0.0000    0.0000 C   0  0  0  0  0  0  0  0  0  0  0  0
    4.7079   -0.4125    0.0000 C   0  0  0  0  0  0  0  0  0  0  0  0
    3.2789   -0.4125    0.0000 C   0  0  0  0  0  0  0  0  0  0  0  0
    2.5645    0.0000    0.0000 C   0  0  0  0  0  0  0  0  0  0  0  0
    1.7798   -0.2549    0.0000 N   0  0  0  0  0  0  0  0  0  0  0  0
    1.2949    0.4125    0.0000 C   0  0  0  0  0  0  0  0  0  0  0  0
    0.4699    0.4125    0.0000 C   0  0  0  0  0  0  0  0  0  0  0  0
    0.0574   -0.3020    0.0000 C   0  0  0  0  0  0  0  0  0  0  0  0
    0.4699   -1.0164    0.0000 F   0  0  0  0  0  0  0  0  0  0  0  0
   -0.7676   -0.3020    0.0000 C   0  0  0  0  0  0  0  0  0  0  0  0
   -1.1801   -1.0164    0.0000 F   0  0  0  0  0  0  0  0  0  0  0  0
   -1.1801    0.4125    0.0000 C   0  0  0  0  0  0  0  0  0  0  0  0
   -2.0051    0.4125    0.0000 C   0  0  0  0  0  0  0  0  0  0  0  0
   -2.4176   -0.3020    0.0000 C   0  0  0  0  0  0  0  0  0  0  0  0
   -3.2426   -0.3020    0.0000 C   0  0  0  0  0  0  0  0  0  0  0  0
   -3.6551    0.4125    0.0000 C   0  0  0  0  0  0  0  0  0  0  0  0
   -3.2426    1.1270    0.0000 C   0  0  0  0  0  0  0  0  0  0  0  0
   -2.4176    1.1270    0.0000 C   0  0  0  0  0  0  0  0  0  0  0  0
   -0.7676    1.1270    0.0000 C   0  0  0  0  0  0  0  0  0  0  0  0
   -1.1801    1.8414    0.0000 F   0  0  0  0  0  0  0  0  0  0  0  0
    0.0574    1.1270    0.0000 C   0  0  0  0  0  0  0  0  0  0  0  0
    0.4699    1.8414    0.0000 F   0  0  0  0  0  0  0  0  0  0  0  0
    1.7798    1.0799    0.0000 N   0  0  0  0  0  0  0  0  0  0  0  0
    2.5645    0.8250    0.0000 C   0  0  0  0  0  0  0  0  0  0  0  0
  1  2  1  0  0  0  0
  2  3  1  0  0  0  0
  3  4  1  0  0  0  0
  4  5  2  0  0  0  0
  4  6  1  0  0  0  0
  6  7  4  0  0  0  0
  7  8  4  0  0  0  0
  8  9  1  0  0  0  0
  8 10  4  0  0  0  0
 10 11  4  0  0  0  0
 11 12  4  0  0  0  0
 12 13  4  0  0  0  0
 13 14  1  0  0  0  0
 14 15  4  0  0  0  0
 15 16  1  0  0  0  0
 15 17  4  0  0  0  0
 17 18  1  0  0  0  0
 17 19  4  0  0  0  0
 19 20  1  0  0  0  0
 20 21  4  0  0  0  0
 21 22  4  0  0  0  0
 22 23  4  0  0  0  0
 23 24  4  0  0  0  0
 24 25  4  0  0  0  0
 20 25  4  0  0  0  0
 19 26  4  0  0  0  0
 26 27  1  0  0  0  0
 26 28  4  0  0  0  0
 14 28  4  0  0  0  0
 28 29  1  0  0  0  0
 13 30  4  0  0  0  0
 30 31  4  0  0  0  0
  6 31  4  0  0  0  0
 11 31  4  0  0  0  0
M  STY  1   1 DAT
M  SAL   1  1  30
M  SDT   1 MRV_IMPLICIT_H                                        
M  SDD   1     0.5304   -0.4125    DR    ALL  0       0  
M  SED   1 IMPL_H1
M  END
> <IC50(uM)>
2.2

> <Outcome>
0.0

> <BindingDB ID>
297800

> <BindingDB MonomerID>
155456

> <BindingDB Ligand Name>
US9006454, I98

> <Curation/DataSource>
US Patent

> <Article DOI>
?

> <PMID>
?

> <Patent Number>
US9006454

> <Authors>
Thunuguntla, SS; Subramanya, H; Kunnam, SR; Sanivaru Vijay, SR; Bingi, C; Kusanur, R; Schwarz, M; Arlt, M

> <Link to Ligand in BindingDB>
http://www.bindingdb.org/bind/chemsearch/marvin/MolStructure.jsp?monomerid=155456

> <Link to Ligand-Target Pair in BindingDB>
http://www.bindingdb.org/jsp/dbsearch/PrimarySearch_ki.jsp?energyterm=kJ/mole&tag=r21&monomerid=155456&enzyme=Dihydroorotate+dehydrogenase&column=ki&startPg=0&Increment=50&submit=Search

> <PubChem CID>
88583056

> <PubChem SID>
253658393

$$$$

  Mrv2115 07222212352D          

 27 31  0  0  0  0            999 V2000
    3.3523   -0.2854    0.0000 O   0  0  0  0  0  0  0  0  0  0  0  0
    3.3523   -1.1104    0.0000 C   0  0  0  0  0  0  0  0  0  0  0  0
    4.0668   -1.5229    0.0000 C   0  0  0  0  0  0  0  0  0  0  0  0
    4.7812   -1.1104    0.0000 C   0  0  0  0  0  0  0  0  0  0  0  0
    5.4957   -1.5229    0.0000 C   0  0  0  0  0  0  0  0  0  0  0  0
    5.4957   -2.3479    0.0000 C   0  0  0  0  0  0  0  0  0  0  0  0
    4.7812   -2.7604    0.0000 C   0  0  0  0  0  0  0  0  0  0  0  0
    4.0668   -2.3479    0.0000 C   0  0  0  0  0  0  0  0  0  0  0  0
    3.3523   -2.7604    0.0000 C   0  0  0  0  0  0  0  0  0  0  0  0
    3.3523   -3.5854    0.0000 O   0  0  0  0  0  0  0  0  0  0  0  0
    2.6378   -2.3479    0.0000 C   0  0  0  0  0  0  0  0  0  0  0  0
    2.6378   -1.5229    0.0000 C   0  0  0  0  0  0  0  0  0  0  0  0
    1.8532   -1.2680    0.0000 N   0  0  0  0  0  0  0  0  0  0  0  0
    1.3683   -1.9354    0.0000 N   0  0  0  0  0  0  0  0  0  0  0  0
    1.8532   -2.6029    0.0000 N   0  0  0  0  0  0  0  0  0  0  0  0
    1.5983   -3.3875    0.0000 C   0  0  0  0  0  0  0  0  0  0  0  0
    2.1503   -4.0006    0.0000 C   0  0  0  0  0  0  0  0  0  0  0  0
    1.8953   -4.7852    0.0000 C   0  0  0  0  0  0  0  0  0  0  0  0
    1.0884   -4.9567    0.0000 C   0  0  0  0  0  0  0  0  0  0  0  0
    0.8334   -5.7414    0.0000 C   0  0  0  0  0  0  0  0  0  0  0  0
    1.3855   -6.3545    0.0000 C   0  0  0  0  0  0  0  0  0  0  0  0
    1.1305   -7.1391    0.0000 N   0  0  0  0  0  0  0  0  0  0  0  0
    0.3236   -7.3106    0.0000 C   0  0  0  0  0  0  0  0  0  0  0  0
   -0.2285   -6.6975    0.0000 N   0  0  0  0  0  0  0  0  0  0  0  0
    0.0265   -5.9129    0.0000 C   0  0  0  0  0  0  0  0  0  0  0  0
    0.5363   -4.3437    0.0000 C   0  0  0  0  0  0  0  0  0  0  0  0
    0.7913   -3.5590    0.0000 C   0  0  0  0  0  0  0  0  0  0  0  0
  1  2  2  0  0  0  0
  2  3  1  0  0  0  0
  3  4  4  0  0  0  0
  4  5  4  0  0  0  0
  5  6  4  0  0  0  0
  6  7  4  0  0  0  0
  7  8  4  0  0  0  0
  3  8  4  0  0  0  0
  8  9  1  0  0  0  0
  9 10  2  0  0  0  0
  9 11  1  0  0  0  0
 11 12  4  0  0  0  0
  2 12  1  0  0  0  0
 12 13  4  0  0  0  0
 13 14  4  0  0  0  0
 14 15  4  0  0  0  0
 11 15  4  0  0  0  0
 15 16  1  0  0  0  0
 16 17  4  0  0  0  0
 17 18  4  0  0  0  0
 18 19  4  0  0  0  0
 19 20  1  0  0  0  0
 20 21  4  0  0  0  0
 21 22  4  0  0  0  0
 22 23  4  0  0  0  0
 23 24  4  0  0  0  0
 24 25  4  0  0  0  0
 20 25  4  0  0  0  0
 19 26  4  0  0  0  0
 26 27  4  0  0  0  0
 16 27  4  0  0  0  0
M  END
> <IC50(uM)>
1.0

> <Outcome>
1.0

> <BindingDB ID>
51338181

> <BindingDB MonomerID>
50541655

> <BindingDB Ligand Name>
CHEMBL4649187

> <Curation/DataSource>
ChEMBL

> <Article DOI>
10.1021/acs.jmedchem.0c00512

> <PMID>
32496056

> <Patent Number>
?

> <Authors>
Zuo, Z; Liu, X; Qian, X; Zeng, T; Sang, N; Liu, H; Zhou, Y; Tao, L; Zhou, X; Su, N; Yu, Y; Chen, Q; Luo, Y; Zhao, Y

> <Link to Ligand in BindingDB>
http://www.bindingdb.org/bind/chemsearch/marvin/MolStructure.jsp?monomerid=50541655

> <Link to Ligand-Target Pair in BindingDB>
http://www.bindingdb.org/jsp/dbsearch/PrimarySearch_ki.jsp?energyterm=kJ/mole&tag=r21&monomerid=50541655&enzyme=Dihydroorotate+dehydrogenase&column=ki&startPg=0&Increment=50&submit=Search

> <PubChem CID>
156020088

> <PubChem SID>
442143218

$$$$

  Mrv2115 07222212352D          

 35 37  0  0  0  0            999 V2000
    4.2868   -2.4750    0.0000 C   0  0  0  0  0  0  0  0  0  0  0  0
    3.5724   -2.8875    0.0000 C   0  0  0  0  0  0  0  0  0  0  0  0
    2.8579   -2.4750    0.0000 O   0  0  0  0  0  0  0  0  0  0  0  0
    2.1434   -2.8875    0.0000 C   0  0  0  0  0  0  0  0  0  0  0  0
    2.1434   -3.7125    0.0000 C   0  0  0  0  0  0  0  0  0  0  0  0
    1.4289   -4.1250    0.0000 C   0  0  0  0  0  0  0  0  0  0  0  0
    1.4289   -4.9500    0.0000 N   0  0  0  0  0  0  0  0  0  0  0  0
    2.0964   -5.4349    0.0000 N   0  0  0  0  0  0  0  0  0  0  0  0
    1.8414   -6.2195    0.0000 C   0  0  0  0  0  0  0  0  0  0  0  0
    2.3264   -6.8870    0.0000 C   0  0  0  0  0  0  0  0  0  0  0  0
    2.8113   -7.5544    0.0000 F   0  0  0  0  0  0  0  0  0  0  0  0
    2.9938   -6.4021    0.0000 F   0  0  0  0  0  0  0  0  0  0  0  0
    1.6589   -7.3719    0.0000 F   0  0  0  0  0  0  0  0  0  0  0  0
    1.0164   -6.2195    0.0000 N   0  0  0  0  0  0  0  0  0  0  0  0
    0.5315   -6.8870    0.0000 C   0  0  0  0  0  0  0  0  0  0  0  0
    0.7615   -5.4349    0.0000 C   0  0  0  0  0  0  0  0  0  0  0  0
   -0.0231   -5.1800    0.0000 O   0  0  0  0  0  0  0  0  0  0  0  0
    0.7145   -3.7125    0.0000 C   0  0  0  0  0  0  0  0  0  0  0  0
    0.0000   -4.1250    0.0000 F   0  0  0  0  0  0  0  0  0  0  0  0
    0.7145   -2.8875    0.0000 C   0  0  0  0  0  0  0  0  0  0  0  0
    1.4289   -2.4750    0.0000 C   0  0  0  0  0  0  0  0  0  0  0  0
    1.4289   -1.6500    0.0000 C   0  0  0  0  0  0  0  0  0  0  0  0
    2.1434   -1.2375    0.0000 O   0  0  0  0  0  0  0  0  0  0  0  0
    0.7145   -1.2375    0.0000 N   0  0  0  0  0  0  0  0  0  0  0  0
    0.7145   -0.4125    0.0000 C   0  0  0  0  0  0  0  0  0  0  0  0
    0.0000    0.0000    0.0000 C   0  0  0  0  0  0  0  0  0  0  0  0
    0.0000    0.8250    0.0000 C   0  0  0  0  0  0  0  0  0  0  0  0
    0.7145    1.2375    0.0000 C   0  0  0  0  0  0  0  0  0  0  0  0
    1.4289    0.8250    0.0000 C   0  0  0  0  0  0  0  0  0  0  0  0
    1.4289    0.0000    0.0000 C   0  0  0  0  0  0  0  0  0  0  0  0
    2.1434   -0.4125    0.0000 F   0  0  0  0  0  0  0  0  0  0  0  0
    3.5724   -3.7125    0.0000 C   0  0  0  0  0  0  0  0  0  0  0  0
    2.7474   -3.7125    0.0000 F   0  0  0  0  0  0  0  0  0  0  0  0
    4.3974   -3.7125    0.0000 F   0  0  0  0  0  0  0  0  0  0  0  0
    3.5724   -4.5375    0.0000 F   0  0  0  0  0  0  0  0  0  0  0  0
  1  2  1  0  0  0  0
  2  3  1  0  0  0  0
  3  4  1  0  0  0  0
  4  5  4  0  0  0  0
  5  6  4  0  0  0  0
  6  7  1  0  0  0  0
  7  8  4  0  0  0  0
  8  9  4  0  0  0  0
  9 10  1  0  0  0  0
 10 11  1  0  0  0  0
 10 12  1  0  0  0  0
 10 13  1  0  0  0  0
  9 14  4  0  0  0  0
 14 15  1  0  0  0  0
 14 16  4  0  0  0  0
  7 16  4  0  0  0  0
 16 17  2  0  0  0  0
  6 18  4  0  0  0  0
 18 19  1  0  0  0  0
 18 20  4  0  0  0  0
 20 21  4  0  0  0  0
  4 21  4  0  0  0  0
 21 22  1  0  0  0  0
 22 23  2  0  0  0  0
 22 24  1  0  0  0  0
 24 25  1  0  0  0  0
 25 26  4  0  0  0  0
 26 27  4  0  0  0  0
 27 28  4  0  0  0  0
 28 29  4  0  0  0  0
 29 30  4  0  0  0  0
 25 30  4  0  0  0  0
 30 31  1  0  0  0  0
  2 32  1  0  0  0  0
 32 33  1  0  0  0  0
 32 34  1  0  0  0  0
 32 35  1  0  0  0  0
M  END
> <IC50(uM)>
0.4

> <Outcome>
1.0

> <BindingDB ID>
1098681; 972527

> <BindingDB MonomerID>
470402

> <BindingDB Ligand Name>
5-fluoro-N-(2-fluorophenyl)-4-[4-methyl-5-oxo-3-(trifluoromethyl)-4,5-dihydro-1H-1,2,4-triazol-1-yl]-2-{[(2S)-1,1,1-trifluoropropan-2-yl]oxy}benzamide::US10815215, Example 61::US11130745, Example 61; 5-fluoro-N-(2-fluorophenyl)-4-[4-methyl-5-oxo-3-(trifluoromethyl)-4,5-dihydro-1H-1,2,4-triazol-1-yl]-2-{[(2S)-1,1,1-trifluoropropan-2-yl]oxy}benzamide::US10815215, Example 61

> <Curation/DataSource>
US Patent

> <Article DOI>
?

> <PMID>
?

> <Patent Number>
US11130745; US10815215

> <Authors>
Gradl, SN; Nguyen, D; Eis, K; Gunther, J; Stellfeld, T; Janzer, A; Christian, S; Muller, T; Sheikh, SE; Sykes, DB; Ferrara, SJ; Krober, M; Merz, C; Niehues, M; Schafer, M; Zimmermann, K; Nising, CF; Gradl, SN; Nguyen, D; Eis, K; Gunther, J; Stellfeld, T; Janzer, A; Christian, S; Muller, T; Sheikh, SE; Zhou, HJ; Zhao, C; Sykes, DB; Ferrara, SJ; Liu, K; Krober, M; Merz, C; Niehues, M; Schafer, M; Zimmermann, K; Nising, CF

> <Link to Ligand in BindingDB>
http://www.bindingdb.org/bind/chemsearch/marvin/MolStructure.jsp?monomerid=470402

> <Link to Ligand-Target Pair in BindingDB>
http://www.bindingdb.org/jsp/dbsearch/PrimarySearch_ki.jsp?energyterm=kJ/mole&tag=r21&monomerid=470402&enzyme=Dihydroorotate+dehydrogenase&column=ki&startPg=0&Increment=50&submit=Search

> <PubChem CID>
134470168

> <PubChem SID>
441609579

$$$$

  Mrv2115 07222212352D          

 23 26  0  0  0  0            999 V2000
    5.8085    0.0151    0.0000 N   0  0  0  0  0  0  0  0  0  0  0  0
    5.2564   -0.5980    0.0000 C   0  0  0  0  0  0  0  0  0  0  0  0
    4.7044   -1.2111    0.0000 C   0  0  0  0  0  0  0  0  0  0  0  0
    4.9594   -1.9957    0.0000 C   0  0  0  0  0  0  0  0  0  0  0  0
    4.4073   -2.6088    0.0000 C   0  0  0  0  0  0  0  0  0  0  0  0
    3.6004   -2.4373    0.0000 C   0  0  0  0  0  0  0  0  0  0  0  0
    3.3454   -1.6527    0.0000 C   0  0  0  0  0  0  0  0  0  0  0  0
    3.8974   -1.0396    0.0000 C   0  0  0  0  0  0  0  0  0  0  0  0
    3.6425   -0.2549    0.0000 N   0  0  0  0  0  0  0  0  0  0  0  0
    4.1274    0.4125    0.0000 N   0  0  0  0  0  0  0  0  0  0  0  0
    3.6425    1.0799    0.0000 N   0  0  0  0  0  0  0  0  0  0  0  0
    2.8579    0.8250    0.0000 C   0  0  0  0  0  0  0  0  0  0  0  0
    2.8579    0.0000    0.0000 C   0  0  0  0  0  0  0  0  0  0  0  0
    2.1434   -0.4125    0.0000 C   0  0  0  0  0  0  0  0  0  0  0  0
    2.1434   -1.2375    0.0000 O   0  0  0  0  0  0  0  0  0  0  0  0
    1.4289   -0.0000    0.0000 C   0  0  0  0  0  0  0  0  0  0  0  0
    0.7145   -0.4125    0.0000 C   0  0  0  0  0  0  0  0  0  0  0  0
   -0.0000    0.0000    0.0000 C   0  0  0  0  0  0  0  0  0  0  0  0
    0.0000    0.8250    0.0000 C   0  0  0  0  0  0  0  0  0  0  0  0
    0.7145    1.2375    0.0000 C   0  0  0  0  0  0  0  0  0  0  0  0
    1.4289    0.8250    0.0000 C   0  0  0  0  0  0  0  0  0  0  0  0
    2.1434    1.2375    0.0000 C   0  0  0  0  0  0  0  0  0  0  0  0
    2.1434    2.0625    0.0000 O   0  0  0  0  0  0  0  0  0  0  0  0
  1  2  3  0  0  0  0
  2  3  1  0  0  0  0
  3  4  4  0  0  0  0
  4  5  4  0  0  0  0
  5  6  4  0  0  0  0
  6  7  4  0  0  0  0
  7  8  4  0  0  0  0
  3  8  4  0  0  0  0
  8  9  1  0  0  0  0
  9 10  4  0  0  0  0
 10 11  4  0  0  0  0
 11 12  4  0  0  0  0
 12 13  4  0  0  0  0
  9 13  4  0  0  0  0
 13 14  1  0  0  0  0
 14 15  2  0  0  0  0
 14 16  1  0  0  0  0
 16 17  4  0  0  0  0
 17 18  4  0  0  0  0
 18 19  4  0  0  0  0
 19 20  4  0  0  0  0
 20 21  4  0  0  0  0
 16 21  4  0  0  0  0
 21 22  1  0  0  0  0
 12 22  1  0  0  0  0
 22 23  2  0  0  0  0
M  END
> <IC50(uM)>
1.0

> <Outcome>
1.0

> <BindingDB ID>
51338161

> <BindingDB MonomerID>
50541635

> <BindingDB Ligand Name>
CHEMBL4644000

> <Curation/DataSource>
ChEMBL

> <Article DOI>
10.1021/acs.jmedchem.0c00512

> <PMID>
32496056

> <Patent Number>
?

> <Authors>
Zuo, Z; Liu, X; Qian, X; Zeng, T; Sang, N; Liu, H; Zhou, Y; Tao, L; Zhou, X; Su, N; Yu, Y; Chen, Q; Luo, Y; Zhao, Y

> <Link to Ligand in BindingDB>
http://www.bindingdb.org/bind/chemsearch/marvin/MolStructure.jsp?monomerid=50541635

> <Link to Ligand-Target Pair in BindingDB>
http://www.bindingdb.org/jsp/dbsearch/PrimarySearch_ki.jsp?energyterm=kJ/mole&tag=r21&monomerid=50541635&enzyme=Dihydroorotate+dehydrogenase&column=ki&startPg=0&Increment=50&submit=Search

> <PubChem CID>
156018659

> <PubChem SID>
442143198

$$$$

  Mrv2115 07222212352D          

 25 27  0  0  0  0            999 V2000
    2.1434   -2.8875    0.0000 O   0  0  0  0  0  0  0  0  0  0  0  0
    1.4289   -2.4750    0.0000 C   0  0  0  0  0  0  0  0  0  0  0  0
    0.7145   -2.8875    0.0000 O   0  0  0  0  0  0  0  0  0  0  0  0
    1.4289   -1.6500    0.0000 C   0  0  0  0  0  0  0  0  0  0  0  0
    0.7145   -1.2375    0.0000 C   0  0  0  0  0  0  0  0  0  0  0  0
    0.7145   -0.4125    0.0000 C   0  0  0  0  0  0  0  0  0  0  0  0
    0.0000    0.0000    0.0000 C   0  0  0  0  0  0  0  0  0  0  0  0
   -0.7145   -0.4125    0.0000 C   0  0  0  0  0  0  0  0  0  0  0  0
   -1.4289    0.0000    0.0000 C   0  0  0  0  0  0  0  0  0  0  0  0
   -1.4289    0.8250    0.0000 C   0  0  0  0  0  0  0  0  0  0  0  0
   -2.1434    1.2375    0.0000 O   0  0  0  0  0  0  0  0  0  0  0  0
   -2.1434    2.0625    0.0000 C   0  0  0  0  0  0  0  0  0  0  0  0
   -2.1434    2.8875    0.0000 F   0  0  0  0  0  0  0  0  0  0  0  0
   -2.9684    2.0625    0.0000 F   0  0  0  0  0  0  0  0  0  0  0  0
   -1.3184    2.0625    0.0000 F   0  0  0  0  0  0  0  0  0  0  0  0
   -0.7145    1.2375    0.0000 C   0  0  0  0  0  0  0  0  0  0  0  0
    0.0000    0.8250    0.0000 C   0  0  0  0  0  0  0  0  0  0  0  0
    1.4289    0.0000    0.0000 N   0  0  0  0  0  0  0  0  0  0  0  0
    2.1434   -0.4125    0.0000 C   0  0  0  0  0  0  0  0  0  0  0  0
    2.8579    0.0000    0.0000 C   0  0  0  0  0  0  0  0  0  0  0  0
    3.5724   -0.4125    0.0000 C   0  0  0  0  0  0  0  0  0  0  0  0
    3.5724   -1.2375    0.0000 C   0  0  0  0  0  0  0  0  0  0  0  0
    4.2868   -1.6500    0.0000 Cl  0  0  0  0  0  0  0  0  0  0  0  0
    2.8579   -1.6500    0.0000 C   0  0  0  0  0  0  0  0  0  0  0  0
    2.1434   -1.2375    0.0000 C   0  0  0  0  0  0  0  0  0  0  0  0
  1  2  2  0  0  0  0
  2  3  1  0  0  0  0
  2  4  1  0  0  0  0
  4  5  4  0  0  0  0
  5  6  4  0  0  0  0
  6  7  1  0  0  0  0
  7  8  4  0  0  0  0
  8  9  4  0  0  0  0
  9 10  4  0  0  0  0
 10 11  1  0  0  0  0
 11 12  1  0  0  0  0
 12 13  1  0  0  0  0
 12 14  1  0  0  0  0
 12 15  1  0  0  0  0
 10 16  4  0  0  0  0
 16 17  4  0  0  0  0
  7 17  4  0  0  0  0
  6 18  4  0  0  0  0
 18 19  4  0  0  0  0
 19 20  4  0  0  0  0
 20 21  4  0  0  0  0
 21 22  4  0  0  0  0
 22 23  1  0  0  0  0
 22 24  4  0  0  0  0
 24 25  4  0  0  0  0
  4 25  4  0  0  0  0
 19 25  4  0  0  0  0
M  END
> <IC50(uM)>
0.31

> <Outcome>
1.0

> <BindingDB ID>
51064011

> <BindingDB MonomerID>
50434235

> <BindingDB Ligand Name>
CHEMBL2385719

> <Curation/DataSource>
ChEMBL

> <Article DOI>
10.1021/ml300464h

> <PMID>
23930152

> <Patent Number>
?

> <Authors>
Das, P; Deng, X; Zhang, L; Roth, MG; Fontoura, BM; Phillips, MA; De Brabander, JK

> <Link to Ligand in BindingDB>
http://www.bindingdb.org/bind/chemsearch/marvin/MolStructure.jsp?monomerid=50434235

> <Link to Ligand-Target Pair in BindingDB>
http://www.bindingdb.org/jsp/dbsearch/PrimarySearch_ki.jsp?energyterm=kJ/mole&tag=r21&monomerid=50434235&enzyme=Dihydroorotate+dehydrogenase&column=ki&startPg=0&Increment=50&submit=Search

> <PubChem CID>
71817130

> <PubChem SID>
175446552

$$$$

  Mrv2115 07222212352D          

 35 38  0  0  0  0            999 V2000
   -5.1659    1.4455    0.0000 C   0  0  0  0  0  0  0  0  0  0  0  0
   -4.3409    1.4455    0.0000 C   0  0  0  0  0  0  0  0  0  0  0  0
   -3.9284    2.1599    0.0000 C   0  0  0  0  0  0  0  0  0  0  0  0
   -4.3409    2.8744    0.0000 F   0  0  0  0  0  0  0  0  0  0  0  0
   -3.1034    2.1599    0.0000 C   0  0  0  0  0  0  0  0  0  0  0  0
   -2.6909    1.4455    0.0000 C   0  0  0  0  0  0  0  0  0  0  0  0
   -3.1034    0.7310    0.0000 C   0  0  0  0  0  0  0  0  0  0  0  0
   -3.9284    0.7310    0.0000 C   0  0  0  0  0  0  0  0  0  0  0  0
   -4.3409    0.0165    0.0000 N   0  0  0  0  0  0  0  0  0  0  0  0
   -3.9284   -0.6979    0.0000 C   0  0  0  0  0  0  0  0  0  0  0  0
   -4.3409   -1.4124    0.0000 O   0  0  0  0  0  0  0  0  0  0  0  0
   -3.1034   -0.6979    0.0000 C   0  0  0  0  0  0  0  0  0  0  0  0
   -2.6909    0.0165    0.0000 C   0  0  0  0  0  0  0  0  0  0  0  0
   -1.8659    0.0165    0.0000 C   0  0  0  0  0  0  0  0  0  0  0  0
   -1.4534    0.7310    0.0000 F   0  0  0  0  0  0  0  0  0  0  0  0
   -1.4534   -0.6979    0.0000 C   0  0  0  0  0  0  0  0  0  0  0  0
   -0.6284   -0.6979    0.0000 N   0  0  0  0  0  0  0  0  0  0  0  0
   -0.1435   -1.3654    0.0000 N   0  0  0  0  0  0  0  0  0  0  0  0
    0.6411   -1.1104    0.0000 C   0  0  0  0  0  0  0  0  0  0  0  0
    0.6411   -0.2854    0.0000 N   0  0  0  0  0  0  0  0  0  0  0  0
   -0.1435   -0.0305    0.0000 C   0  0  0  0  0  0  0  0  0  0  0  0
   -0.3984    0.7541    0.0000 O   0  0  0  0  0  0  0  0  0  0  0  0
    1.3556    0.1271    0.0000 C   0  0  0  0  0  0  0  0  0  0  0  0
    2.0701   -0.2854    0.0000 C   0  0  0  0  0  0  0  0  0  0  0  0
    2.0701   -1.1104    0.0000 C   0  0  0  0  0  0  0  0  0  0  0  0
    1.3556   -1.5229    0.0000 C   0  0  0  0  0  0  0  0  0  0  0  0
   -1.8659   -1.4124    0.0000 C   0  0  0  0  0  0  0  0  0  0  0  0
   -2.6909   -1.4124    0.0000 C   0  0  0  0  0  0  0  0  0  0  0  0
   -3.1034   -2.1269    0.0000 O   0  0  0  0  0  0  0  0  0  0  0  0
   -2.6909   -2.8414    0.0000 C   0  0  0  0  0  0  0  0  0  0  0  0
   -1.8659   -2.8414    0.0000 C   0  0  0  0  0  0  0  0  0  0  0  0
   -3.1034   -3.5558    0.0000 C   0  0  0  0  0  0  0  0  0  0  0  0
   -3.8179   -3.1433    0.0000 F   0  0  0  0  0  0  0  0  0  0  0  0
   -2.3890   -3.9683    0.0000 F   0  0  0  0  0  0  0  0  0  0  0  0
   -3.5159   -4.2703    0.0000 F   0  0  0  0  0  0  0  0  0  0  0  0
  1  2  1  0  0  0  0
  2  3  4  0  0  0  0
  3  4  1  0  0  0  0
  3  5  4  0  0  0  0
  5  6  4  0  0  0  0
  6  7  4  0  0  0  0
  7  8  4  0  0  0  0
  2  8  4  0  0  0  0
  8  9  1  0  0  0  0
  9 10  1  0  0  0  0
 10 11  2  0  0  0  0
 10 12  1  0  0  0  0
 12 13  4  0  0  0  0
 13 14  4  0  0  0  0
 14 15  1  0  0  0  0
 14 16  4  0  0  0  0
 16 17  1  0  0  0  0
 17 18  4  0  0  0  0
 18 19  4  0  0  0  0
 19 20  4  0  0  0  0
 20 21  4  0  0  0  0
 17 21  4  0  0  0  0
 21 22  2  0  0  0  0
 20 23  1  0  0  0  0
 23 24  1  0  0  0  0
 24 25  1  0  0  0  0
 25 26  1  0  0  0  0
 19 26  1  0  0  0  0
 16 27  4  0  0  0  0
 27 28  4  0  0  0  0
 12 28  4  0  0  0  0
 28 29  1  0  0  0  0
 29 30  1  0  0  0  0
 30 31  1  0  0  0  0
 30 32  1  0  0  0  0
 32 33  1  0  0  0  0
 32 34  1  0  0  0  0
 32 35  1  0  0  0  0
M  END
> <IC50(uM)>
0.02

> <Outcome>
1.0

> <BindingDB ID>
1020424

> <BindingDB MonomerID>
490375

> <BindingDB Ligand Name>
5-fluoro-N-(3-fluoro-2-methylphenyl)-4-(3-oxo-5,6,7,8-tetrahydro[1,2,4]triazolo[4,3-a]pyridin-2(3H)-yl)-2-{[(2S)-1,1,1-trifluoropropan-2-yl]oxy}benzamide::US10968216, Example 43

> <Curation/DataSource>
US Patent

> <Article DOI>
?

> <PMID>
?

> <Patent Number>
US10968216

> <Authors>
Gradl, SN; Nguyen, D; Eis, K; Gunther, J; Stellfeld, T; Janzer, A; Christian, S; Mueller, T; Sheikh, SE; Zhou, HJ; Zhao, C; Sykes, DB; Ferrara, SJ; Liu, K; Herbert, SA; Merz, C; Niehues, M; Nising, CF; Schafer, M; Zimmermann, K; Knablein, J; Thede, K; Faupel, T

> <Link to Ligand in BindingDB>
http://www.bindingdb.org/bind/chemsearch/marvin/MolStructure.jsp?monomerid=490375

> <Link to Ligand-Target Pair in BindingDB>
http://www.bindingdb.org/jsp/dbsearch/PrimarySearch_ki.jsp?energyterm=kJ/mole&tag=r21&monomerid=490375&enzyme=Dihydroorotate+dehydrogenase&column=ki&startPg=0&Increment=50&submit=Search

> <PubChem CID>
134473946

> <PubChem SID>
447117102

$$$$

  Mrv2115 07222212352D          

 29 32  0  0  0  0            999 V2000
    3.9934    2.4750    0.0000 O   0  0  0  0  0  0  0  0  0  0  0  0
    3.2789    2.0625    0.0000 C   0  0  0  0  0  0  0  0  0  0  0  0
    2.5645    2.4750    0.0000 O   0  0  0  0  0  0  0  0  0  0  0  0
    3.2789    1.2375    0.0000 C   0  0  0  0  0  0  0  0  0  0  0  0
    3.9934    0.8250    0.0000 C   0  0  0  0  0  0  0  0  0  0  0  0
    3.9934    0.0000    0.0000 C   0  0  0  0  0  0  0  0  0  0  0  0
    3.2789   -0.4125    0.0000 C   0  0  0  0  0  0  0  0  0  0  0  0
    2.5645    0.0000    0.0000 C   0  0  0  0  0  0  0  0  0  0  0  0
    1.7798   -0.2549    0.0000 N   0  0  0  0  0  0  0  0  0  0  0  0
    1.2949    0.4125    0.0000 C   0  0  0  0  0  0  0  0  0  0  0  0
    0.4699    0.4125    0.0000 C   0  0  0  0  0  0  0  0  0  0  0  0
    0.0574   -0.3020    0.0000 C   0  0  0  0  0  0  0  0  0  0  0  0
    0.4699   -1.0164    0.0000 F   0  0  0  0  0  0  0  0  0  0  0  0
   -0.7676   -0.3020    0.0000 C   0  0  0  0  0  0  0  0  0  0  0  0
   -1.1801   -1.0164    0.0000 F   0  0  0  0  0  0  0  0  0  0  0  0
   -1.1801    0.4125    0.0000 C   0  0  0  0  0  0  0  0  0  0  0  0
   -2.0051    0.4125    0.0000 C   0  0  0  0  0  0  0  0  0  0  0  0
   -2.4176   -0.3020    0.0000 C   0  0  0  0  0  0  0  0  0  0  0  0
   -3.2426   -0.3020    0.0000 C   0  0  0  0  0  0  0  0  0  0  0  0
   -3.6551    0.4125    0.0000 C   0  0  0  0  0  0  0  0  0  0  0  0
   -4.4801    0.4125    0.0000 F   0  0  0  0  0  0  0  0  0  0  0  0
   -3.2426    1.1270    0.0000 C   0  0  0  0  0  0  0  0  0  0  0  0
   -2.4176    1.1270    0.0000 C   0  0  0  0  0  0  0  0  0  0  0  0
   -0.7676    1.1270    0.0000 C   0  0  0  0  0  0  0  0  0  0  0  0
   -1.1801    1.8414    0.0000 F   0  0  0  0  0  0  0  0  0  0  0  0
    0.0574    1.1270    0.0000 C   0  0  0  0  0  0  0  0  0  0  0  0
    0.4699    1.8414    0.0000 F   0  0  0  0  0  0  0  0  0  0  0  0
    1.7798    1.0799    0.0000 N   0  0  0  0  0  0  0  0  0  0  0  0
    2.5645    0.8250    0.0000 C   0  0  0  0  0  0  0  0  0  0  0  0
  1  2  2  0  0  0  0
  2  3  1  0  0  0  0
  2  4  1  0  0  0  0
  4  5  4  0  0  0  0
  5  6  4  0  0  0  0
  6  7  4  0  0  0  0
  7  8  4  0  0  0  0
  8  9  4  0  0  0  0
  9 10  4  0  0  0  0
 10 11  1  0  0  0  0
 11 12  4  0  0  0  0
 12 13  1  0  0  0  0
 12 14  4  0  0  0  0
 14 15  1  0  0  0  0
 14 16  4  0  0  0  0
 16 17  1  0  0  0  0
 17 18  4  0  0  0  0
 18 19  4  0  0  0  0
 19 20  4  0  0  0  0
 20 21  1  0  0  0  0
 20 22  4  0  0  0  0
 22 23  4  0  0  0  0
 17 23  4  0  0  0  0
 16 24  4  0  0  0  0
 24 25  1  0  0  0  0
 24 26  4  0  0  0  0
 11 26  4  0  0  0  0
 26 27  1  0  0  0  0
 10 28  4  0  0  0  0
 28 29  4  0  0  0  0
  4 29  4  0  0  0  0
  8 29  4  0  0  0  0
M  STY  1   1 DAT
M  SAL   1  1   9
M  SDT   1 MRV_IMPLICIT_H                                        
M  SDD   1     0.5304   -0.4125    DR    ALL  0       0  
M  SED   1 IMPL_H1
M  END
> <IC50(uM)>
0.808

> <Outcome>
1.0

> <BindingDB ID>
297835

> <BindingDB MonomerID>
155491

> <BindingDB Ligand Name>
US9006454, I133

> <Curation/DataSource>
US Patent

> <Article DOI>
?

> <PMID>
?

> <Patent Number>
US9006454

> <Authors>
Thunuguntla, SS; Subramanya, H; Kunnam, SR; Sanivaru Vijay, SR; Bingi, C; Kusanur, R; Schwarz, M; Arlt, M

> <Link to Ligand in BindingDB>
http://www.bindingdb.org/bind/chemsearch/marvin/MolStructure.jsp?monomerid=155491

> <Link to Ligand-Target Pair in BindingDB>
http://www.bindingdb.org/jsp/dbsearch/PrimarySearch_ki.jsp?energyterm=kJ/mole&tag=r21&monomerid=155491&enzyme=Dihydroorotate+dehydrogenase&column=ki&startPg=0&Increment=50&submit=Search

> <PubChem CID>
58073818

> <PubChem SID>
253658428

$$$$

  Mrv2115 07222212352D          

 29 31  0  0  0  0            999 V2000
   -2.8579    9.6536    0.0000 C   0  0  0  0  0  0  0  0  0  0  0  0
   -2.1434    9.2411    0.0000 O   0  0  0  0  0  0  0  0  0  0  0  0
   -1.4289    9.6536    0.0000 C   0  0  0  0  0  0  0  0  0  0  0  0
   -1.4289   10.4786    0.0000 C   0  0  0  0  0  0  0  0  0  0  0  0
   -0.7145   10.8911    0.0000 C   0  0  0  0  0  0  0  0  0  0  0  0
   -0.0000   10.4786    0.0000 C   0  0  0  0  0  0  0  0  0  0  0  0
   -0.0000    9.6536    0.0000 C   0  0  0  0  0  0  0  0  0  0  0  0
   -0.7145    9.2411    0.0000 C   0  0  0  0  0  0  0  0  0  0  0  0
   -0.7145    8.4161    0.0000 C   0  0  0  0  0  0  0  0  0  0  0  0
   -0.0000    8.0036    0.0000 C   0  0  0  0  0  0  0  0  0  0  0  0
    0.7145    8.4161    0.0000 F   0  0  0  0  0  0  0  0  0  0  0  0
   -0.0000    7.1786    0.0000 C   0  0  0  0  0  0  0  0  0  0  0  0
    0.7145    6.7661    0.0000 F   0  0  0  0  0  0  0  0  0  0  0  0
   -0.7145    6.7661    0.0000 C   0  0  0  0  0  0  0  0  0  0  0  0
   -0.7145    5.9411    0.0000 N   0  0  0  0  0  0  0  0  0  0  0  0
   -0.0000    5.5286    0.0000 C   0  0  0  0  0  0  0  0  0  0  0  0
    0.7145    5.9411    0.0000 O   0  0  0  0  0  0  0  0  0  0  0  0
   -0.0000    4.7036    0.0000 C   0  0  0  0  0  0  0  0  0  0  0  0
    0.6674    4.2187    0.0000 C   0  0  0  0  0  0  0  0  0  0  0  0
    1.4521    4.4736    0.0000 C   0  0  0  0  0  0  0  0  0  0  0  0
    1.6236    5.2806    0.0000 O   0  0  0  0  0  0  0  0  0  0  0  0
    2.0652    3.9216    0.0000 O   0  0  0  0  0  0  0  0  0  0  0  0
    0.4125    3.4340    0.0000 C   0  0  0  0  0  0  0  0  0  0  0  0
   -0.4125    3.4340    0.0000 C   0  0  0  0  0  0  0  0  0  0  0  0
   -0.6674    4.2187    0.0000 C   0  0  0  0  0  0  0  0  0  0  0  0
   -1.4289    7.1786    0.0000 C   0  0  0  0  0  0  0  0  0  0  0  0
   -2.1434    6.7661    0.0000 F   0  0  0  0  0  0  0  0  0  0  0  0
   -1.4289    8.0036    0.0000 C   0  0  0  0  0  0  0  0  0  0  0  0
   -2.1434    8.4161    0.0000 F   0  0  0  0  0  0  0  0  0  0  0  0
  1  2  1  0  0  0  0
  2  3  1  0  0  0  0
  3  4  4  0  0  0  0
  4  5  4  0  0  0  0
  5  6  4  0  0  0  0
  6  7  4  0  0  0  0
  7  8  4  0  0  0  0
  3  8  4  0  0  0  0
  8  9  1  0  0  0  0
  9 10  4  0  0  0  0
 10 11  1  0  0  0  0
 10 12  4  0  0  0  0
 12 13  1  0  0  0  0
 12 14  4  0  0  0  0
 14 15  1  0  0  0  0
 15 16  1  0  0  0  0
 16 17  2  0  0  0  0
 16 18  1  0  0  0  0
 18 19  2  0  0  0  0
 19 20  1  0  0  0  0
 20 21  2  0  0  0  0
 20 22  1  0  0  0  0
 19 23  1  0  0  0  0
 23 24  1  0  0  0  0
 24 25  1  0  0  0  0
 18 25  1  0  0  0  0
 14 26  4  0  0  0  0
 26 27  1  0  0  0  0
 26 28  4  0  0  0  0
  9 28  4  0  0  0  0
 28 29  1  0  0  0  0
M  END
> <IC50(uM)>
0.008

> <Outcome>
1.0

> <BindingDB ID>
29215; 50251711

> <BindingDB MonomerID>
16112

> <BindingDB Ligand Name>
2-{[2,3,5,6-tetrafluoro-4-(2-methoxyphenyl)phenyl]carbamoyl}cyclopent-1-ene-1-carboxylic acid::Biphenyl-4-ylcarbamoyl Cyclopentene Analog 3::CHEMBL345701

> <Curation/DataSource>
Curated from the literature by BindingDB; ChEMBL

> <Article DOI>
10.1016/j.bmcl.2005.10.011; 10.1016/j.bmcl.2003.10.021

> <PMID>
16246558; 14684297

> <Patent Number>
?

> <Authors>
Leban, J; Kralik, M; Mies, J; Baumgartner, R; Gassen, M; Tasler, S; Leban, J; Saeb, W; Garcia, G; Baumgartner, R; Kramer, B

> <Link to Ligand in BindingDB>
http://www.bindingdb.org/bind/chemsearch/marvin/MolStructure.jsp?monomerid=16112

> <Link to Ligand-Target Pair in BindingDB>
http://www.bindingdb.org/jsp/dbsearch/PrimarySearch_ki.jsp?energyterm=kJ/mole&tag=r21&monomerid=16112&enzyme=Dihydroorotate+Dehydrogenase+%28DHODH%29&column=ki&startPg=0&Increment=50&submit=Search; http://www.bindingdb.org/jsp/dbsearch/PrimarySearch_ki.jsp?energyterm=kJ/mole&tag=r21&monomerid=16112&enzyme=Dihydroorotate+dehydrogenase&column=ki&startPg=0&Increment=50&submit=Search

> <PubChem CID>
10454174

> <PubChem SID>
46516371

$$$$

  Mrv2115 07222212352D          

 25 27  0  0  0  0            999 V2000
    4.0668    2.3479    0.0000 C   0  0  0  0  0  0  0  0  0  0  0  0
    3.3523    1.9354    0.0000 C   0  0  0  0  0  0  0  0  0  0  0  0
    3.3523    1.1104    0.0000 C   0  0  0  0  0  0  0  0  0  0  0  0
    2.6378    0.6979    0.0000 C   0  0  0  0  0  0  0  0  0  0  0  0
    2.6378   -0.1271    0.0000 N   0  0  0  0  0  0  0  0  0  0  0  0
    3.3523   -0.5396    0.0000 C   0  0  0  0  0  0  0  0  0  0  0  0
    4.0668   -0.1271    0.0000 C   0  0  0  0  0  0  0  0  0  0  0  0
    4.7812   -0.5396    0.0000 C   0  0  0  0  0  0  0  0  0  0  0  0
    4.7812   -1.3646    0.0000 C   0  0  0  0  0  0  0  0  0  0  0  0
    5.4957   -1.7771    0.0000 C   0  0  0  0  0  0  0  0  0  0  0  0
    6.2102   -2.1896    0.0000 F   0  0  0  0  0  0  0  0  0  0  0  0
    5.9082   -1.0626    0.0000 F   0  0  0  0  0  0  0  0  0  0  0  0
    5.0832   -2.4915    0.0000 F   0  0  0  0  0  0  0  0  0  0  0  0
    4.0668   -1.7771    0.0000 N   0  0  0  0  0  0  0  0  0  0  0  0
    3.3523   -1.3646    0.0000 C   0  0  0  0  0  0  0  0  0  0  0  0
    1.9233    1.1104    0.0000 N   0  0  0  0  0  0  0  0  0  0  0  0
    1.1387    0.8555    0.0000 N   0  0  0  0  0  0  0  0  0  0  0  0
    0.6538    1.5229    0.0000 C   0  0  0  0  0  0  0  0  0  0  0  0
   -0.1712    1.5229    0.0000 C   0  0  0  0  0  0  0  0  0  0  0  0
   -0.9962    1.5229    0.0000 C   0  0  0  0  0  0  0  0  0  0  0  0
   -0.1712    2.3479    0.0000 F   0  0  0  0  0  0  0  0  0  0  0  0
   -0.1712    0.6979    0.0000 F   0  0  0  0  0  0  0  0  0  0  0  0
    1.1387    2.1904    0.0000 N   0  0  0  0  0  0  0  0  0  0  0  0
    1.9233    1.9354    0.0000 C   0  0  0  0  0  0  0  0  0  0  0  0
    2.6378    2.3479    0.0000 N   0  0  0  0  0  0  0  0  0  0  0  0
  1  2  1  0  0  0  0
  2  3  4  0  0  0  0
  3  4  4  0  0  0  0
  4  5  1  0  0  0  0
  5  6  1  0  0  0  0
  6  7  4  0  0  0  0
  7  8  4  0  0  0  0
  8  9  4  0  0  0  0
  9 10  1  0  0  0  0
 10 11  1  0  0  0  0
 10 12  1  0  0  0  0
 10 13  1  0  0  0  0
  9 14  4  0  0  0  0
 14 15  4  0  0  0  0
  6 15  4  0  0  0  0
  4 16  4  0  0  0  0
 16 17  4  0  0  0  0
 17 18  4  0  0  0  0
 18 19  1  0  0  0  0
 19 20  1  0  0  0  0
 19 21  1  0  0  0  0
 19 22  1  0  0  0  0
 18 23  4  0  0  0  0
 23 24  4  0  0  0  0
 16 24  4  0  0  0  0
 24 25  4  0  0  0  0
  2 25  4  0  0  0  0
M  END
> <IC50(uM)>
100.0

> <Outcome>
0.0

> <BindingDB ID>
51327342

> <BindingDB MonomerID>
50536997

> <BindingDB Ligand Name>
CHEMBL4557830

> <Curation/DataSource>
ChEMBL

> <Article DOI>
10.1016/j.ejmech.2019.01.027

> <PMID>
30703745

> <Patent Number>
?

> <Authors>
Oukoloff, K; Lucero, B; Francisco, KR; Brunden, KR; Ballatore, C

> <Link to Ligand in BindingDB>
http://www.bindingdb.org/bind/chemsearch/marvin/MolStructure.jsp?monomerid=50536997

> <Link to Ligand-Target Pair in BindingDB>
http://www.bindingdb.org/jsp/dbsearch/PrimarySearch_ki.jsp?energyterm=kJ/mole&tag=r21&monomerid=50536997&enzyme=Dihydroorotate+dehydrogenase&column=ki&startPg=0&Increment=50&submit=Search

> <PubChem CID>
122552662

> <PubChem SID>
440827821

$$$$

  Mrv2115 07222212352D          

 28 31  0  0  0  0            999 V2000
   -3.1599    0.6507    0.0000 O   0  0  0  0  0  0  0  0  0  0  0  0
   -3.1599   -0.1743    0.0000 C   0  0  0  0  0  0  0  0  0  0  0  0
   -3.8743   -0.5868    0.0000 O   0  0  0  0  0  0  0  0  0  0  0  0
   -2.4454   -0.5868    0.0000 C   0  0  0  0  0  0  0  0  0  0  0  0
   -2.4454   -1.4118    0.0000 C   0  0  0  0  0  0  0  0  0  0  0  0
   -1.7309   -1.8243    0.0000 C   0  0  0  0  0  0  0  0  0  0  0  0
   -1.0164   -1.4118    0.0000 C   0  0  0  0  0  0  0  0  0  0  0  0
   -1.0164   -0.5868    0.0000 N   0  0  0  0  0  0  0  0  0  0  0  0
   -1.7309   -0.1743    0.0000 C   0  0  0  0  0  0  0  0  0  0  0  0
   -1.7309    0.6507    0.0000 N   0  0  0  0  0  0  0  0  0  0  0  0
   -1.0164    1.0632    0.0000 C   0  0  0  0  0  0  0  0  0  0  0  0
   -1.0164    1.8882    0.0000 C   0  0  0  0  0  0  0  0  0  0  0  0
   -1.7309    2.3007    0.0000 F   0  0  0  0  0  0  0  0  0  0  0  0
   -0.3020    2.3007    0.0000 C   0  0  0  0  0  0  0  0  0  0  0  0
    0.4125    1.8882    0.0000 C   0  0  0  0  0  0  0  0  0  0  0  0
    1.1270    2.3007    0.0000 C   0  0  0  0  0  0  0  0  0  0  0  0
    1.1270    3.1257    0.0000 C   0  0  0  0  0  0  0  0  0  0  0  0
    1.8414    3.5382    0.0000 C   0  0  0  0  0  0  0  0  0  0  0  0
    2.5559    3.1257    0.0000 C   0  0  0  0  0  0  0  0  0  0  0  0
    2.5559    2.3007    0.0000 C   0  0  0  0  0  0  0  0  0  0  0  0
    3.2704    1.8882    0.0000 O   0  0  0  0  0  0  0  0  0  0  0  0
    3.2704    1.0632    0.0000 C   0  0  0  0  0  0  0  0  0  0  0  0
    3.6829    0.3487    0.0000 C   0  0  0  0  0  0  0  0  0  0  0  0
    2.8579    0.3487    0.0000 C   0  0  0  0  0  0  0  0  0  0  0  0
    1.8414    1.8882    0.0000 C   0  0  0  0  0  0  0  0  0  0  0  0
    0.4125    1.0632    0.0000 C   0  0  0  0  0  0  0  0  0  0  0  0
   -0.3020    0.6507    0.0000 C   0  0  0  0  0  0  0  0  0  0  0  0
   -0.3020   -0.1743    0.0000 F   0  0  0  0  0  0  0  0  0  0  0  0
  1  2  2  0  0  0  0
  2  3  1  0  0  0  0
  2  4  1  0  0  0  0
  4  5  4  0  0  0  0
  5  6  4  0  0  0  0
  6  7  4  0  0  0  0
  7  8  4  0  0  0  0
  8  9  4  0  0  0  0
  4  9  4  0  0  0  0
  9 10  1  0  0  0  0
 10 11  1  0  0  0  0
 11 12  4  0  0  0  0
 12 13  1  0  0  0  0
 12 14  4  0  0  0  0
 14 15  4  0  0  0  0
 15 16  1  0  0  0  0
 16 17  4  0  0  0  0
 17 18  4  0  0  0  0
 18 19  4  0  0  0  0
 19 20  4  0  0  0  0
 20 21  1  0  0  0  0
 21 22  1  0  0  0  0
 22 23  1  0  0  0  0
 23 24  1  0  0  0  0
 22 24  1  0  0  0  0
 20 25  4  0  0  0  0
 16 25  4  0  0  0  0
 15 26  4  0  0  0  0
 26 27  4  0  0  0  0
 11 27  4  0  0  0  0
 27 28  1  0  0  0  0
M  END
> <IC50(uM)>
0.017

> <Outcome>
1.0

> <BindingDB ID>
246916; 51186837

> <BindingDB MonomerID>
119823

> <BindingDB Ligand Name>
US8691852, 47

> <Curation/DataSource>
US Patent; ChEMBL

> <Article DOI>
?; 10.1007/s00044-011-9837-4

> <PMID>
?

> <Patent Number>
US8691852; ?

> <Authors>
Castro Palomino Laria, JC; Erra Sola, M; Lozoya Toribio, ME; Navarro Romero, E; n/a

> <Link to Ligand in BindingDB>
http://www.bindingdb.org/bind/chemsearch/marvin/MolStructure.jsp?monomerid=119823

> <Link to Ligand-Target Pair in BindingDB>
http://www.bindingdb.org/jsp/dbsearch/PrimarySearch_ki.jsp?energyterm=kJ/mole&tag=r21&monomerid=119823&enzyme=Dihydroorotate+dehydrogenase&column=ki&startPg=0&Increment=50&submit=Search

> <PubChem CID>
24988659

> <PubChem SID>
220230617

$$$$

  Mrv2115 07222212352D          

 21 23  0  0  0  0            999 V2000
   -1.4087    0.0165    0.0000 C   0  0  0  0  0  0  0  0  0  0  0  0
   -0.5837    0.0165    0.0000 C   0  0  0  0  0  0  0  0  0  0  0  0
   -0.1712   -0.6979    0.0000 O   0  0  0  0  0  0  0  0  0  0  0  0
    0.6538   -0.6979    0.0000 C   0  0  0  0  0  0  0  0  0  0  0  0
    1.1387   -0.0305    0.0000 N   0  0  0  0  0  0  0  0  0  0  0  0
    1.9233   -0.2854    0.0000 C   0  0  0  0  0  0  0  0  0  0  0  0
    2.6378    0.1271    0.0000 N   0  0  0  0  0  0  0  0  0  0  0  0
    3.3523   -0.2854    0.0000 C   0  0  0  0  0  0  0  0  0  0  0  0
    4.0668    0.1271    0.0000 C   0  0  0  0  0  0  0  0  0  0  0  0
    3.3523   -1.1104    0.0000 C   0  0  0  0  0  0  0  0  0  0  0  0
    2.6378   -1.5229    0.0000 C   0  0  0  0  0  0  0  0  0  0  0  0
    2.6378   -2.3479    0.0000 N   0  0  0  0  0  0  0  0  0  0  0  0
    1.9233   -2.7604    0.0000 C   0  0  0  0  0  0  0  0  0  0  0  0
    1.9233   -3.5854    0.0000 C   0  0  0  0  0  0  0  0  0  0  0  0
    1.2089   -3.9979    0.0000 C   0  0  0  0  0  0  0  0  0  0  0  0
    0.4944   -3.5854    0.0000 C   0  0  0  0  0  0  0  0  0  0  0  0
    0.4944   -2.7604    0.0000 C   0  0  0  0  0  0  0  0  0  0  0  0
   -0.2201   -2.3479    0.0000 Cl  0  0  0  0  0  0  0  0  0  0  0  0
    1.2089   -2.3479    0.0000 C   0  0  0  0  0  0  0  0  0  0  0  0
    1.9233   -1.1104    0.0000 N   0  0  0  0  0  0  0  0  0  0  0  0
    1.1387   -1.3654    0.0000 N   0  0  0  0  0  0  0  0  0  0  0  0
  1  2  1  0  0  0  0
  2  3  1  0  0  0  0
  3  4  1  0  0  0  0
  4  5  4  0  0  0  0
  5  6  4  0  0  0  0
  6  7  4  0  0  0  0
  7  8  4  0  0  0  0
  8  9  1  0  0  0  0
  8 10  4  0  0  0  0
 10 11  4  0  0  0  0
 11 12  1  0  0  0  0
 12 13  1  0  0  0  0
 13 14  4  0  0  0  0
 14 15  4  0  0  0  0
 15 16  4  0  0  0  0
 16 17  4  0  0  0  0
 17 18  1  0  0  0  0
 17 19  4  0  0  0  0
 13 19  4  0  0  0  0
 11 20  4  0  0  0  0
  6 20  4  0  0  0  0
 20 21  4  0  0  0  0
  4 21  4  0  0  0  0
M  END
> <IC50(uM)>
100.0

> <Outcome>
0.0

> <BindingDB ID>
50720153

> <BindingDB MonomerID>
50365223

> <BindingDB Ligand Name>
CHEMBL1956470

> <Curation/DataSource>
ChEMBL

> <Article DOI>
10.1021/jm200592f

> <PMID>
21696174

> <Patent Number>
?

> <Authors>
Coteron, JM; Marco, M; Esquivias, J; Deng, X; White, KL; White, J; Koltun, M; El Mazouni, F; Kokkonda, S; Katneni, K; Bhamidipati, R; Shackleford, DM; Angulo-Barturen, I; Ferrer, SB; Jimenez-Diaz, MB; Gamo, FJ; Goldsmith, EJ; Charman, WN; Bathurst, I; Floyd, D; Matthews, D; Burrows, JN; Rathod, PK; Charman, SA; Phillips, MA

> <Link to Ligand in BindingDB>
http://www.bindingdb.org/bind/chemsearch/marvin/MolStructure.jsp?monomerid=50365223

> <Link to Ligand-Target Pair in BindingDB>
http://www.bindingdb.org/jsp/dbsearch/PrimarySearch_ki.jsp?energyterm=kJ/mole&tag=r21&monomerid=50365223&enzyme=Dihydroorotate+dehydrogenase&column=ki&startPg=0&Increment=50&submit=Search

> <PubChem CID>
53392883

> <PubChem SID>
136969285

$$$$

  Mrv2115 07222212352D          

 25 28  0  0  0  0            999 V2000
   -1.7575    0.3126    0.0000 C   0  0  0  0  0  0  0  0  0  0  0  0
   -1.2054    0.9256    0.0000 C   0  0  0  0  0  0  0  0  0  0  0  0
   -1.4604    1.7103    0.0000 C   0  0  0  0  0  0  0  0  0  0  0  0
   -0.9083    2.3234    0.0000 C   0  0  0  0  0  0  0  0  0  0  0  0
   -0.1014    2.1518    0.0000 C   0  0  0  0  0  0  0  0  0  0  0  0
    0.1536    1.3672    0.0000 C   0  0  0  0  0  0  0  0  0  0  0  0
   -0.3984    0.7541    0.0000 C   0  0  0  0  0  0  0  0  0  0  0  0
   -0.1435   -0.0305    0.0000 N   0  0  0  0  0  0  0  0  0  0  0  0
   -0.6284   -0.6979    0.0000 N   0  0  0  0  0  0  0  0  0  0  0  0
   -0.1435   -1.3654    0.0000 C   0  0  0  0  0  0  0  0  0  0  0  0
    0.6411   -1.1104    0.0000 C   0  0  0  0  0  0  0  0  0  0  0  0
    0.6411   -0.2854    0.0000 C   0  0  0  0  0  0  0  0  0  0  0  0
    1.3556    0.1271    0.0000 C   0  0  0  0  0  0  0  0  0  0  0  0
    2.0701   -0.2854    0.0000 C   0  0  0  0  0  0  0  0  0  0  0  0
    2.0701   -1.1104    0.0000 C   0  0  0  0  0  0  0  0  0  0  0  0
    1.3556   -1.5229    0.0000 C   0  0  0  0  0  0  0  0  0  0  0  0
    1.3556   -2.3479    0.0000 N   0  0  0  0  0  0  0  0  0  0  0  0
    2.0701   -2.7604    0.0000 C   0  0  0  0  0  0  0  0  0  0  0  0
    2.7845   -2.3479    0.0000 O   0  0  0  0  0  0  0  0  0  0  0  0
    2.0701   -3.5854    0.0000 C   0  0  0  0  0  0  0  0  0  0  0  0
    2.7845   -3.9979    0.0000 C   0  0  0  0  0  0  0  0  0  0  0  0
    2.7845   -4.8229    0.0000 C   0  0  0  0  0  0  0  0  0  0  0  0
    2.0701   -5.2354    0.0000 C   0  0  0  0  0  0  0  0  0  0  0  0
    1.3556   -4.8229    0.0000 C   0  0  0  0  0  0  0  0  0  0  0  0
    1.3556   -3.9979    0.0000 N   0  0  0  0  0  0  0  0  0  0  0  0
  1  2  1  0  0  0  0
  2  3  4  0  0  0  0
  3  4  4  0  0  0  0
  4  5  4  0  0  0  0
  5  6  4  0  0  0  0
  6  7  4  0  0  0  0
  2  7  4  0  0  0  0
  7  8  1  0  0  0  0
  8  9  4  0  0  0  0
  9 10  4  0  0  0  0
 10 11  4  0  0  0  0
 11 12  4  0  0  0  0
  8 12  4  0  0  0  0
 12 13  1  0  0  0  0
 13 14  1  0  0  0  0
 14 15  1  0  0  0  0
 15 16  1  0  0  0  0
 11 16  1  0  0  0  0
 16 17  1  0  0  0  0
 17 18  1  0  0  0  0
 18 19  2  0  0  0  0
 18 20  1  0  0  0  0
 20 21  4  0  0  0  0
 21 22  4  0  0  0  0
 22 23  4  0  0  0  0
 23 24  4  0  0  0  0
 24 25  4  0  0  0  0
 20 25  4  0  0  0  0
M  END
> <IC50(uM)>
0.355

> <Outcome>
1.0

> <BindingDB ID>
993088

> <BindingDB MonomerID>
477590

> <BindingDB Ligand Name>
N-[(4R)-1-(2-methylphenyl)-4,5,6,7-tetrahydro-1H-indazol-4-yl]pyridine-2-carboxamide::US10889564, Example 20

> <Curation/DataSource>
US Patent

> <Article DOI>
?

> <PMID>
?

> <Patent Number>
US10889564

> <Authors>
Lain, S; Drummond, C; Leeuwen, IV; Haraldsson, M; Johansson, L; Sandberg, L; Yngve, U

> <Link to Ligand in BindingDB>
http://www.bindingdb.org/bind/chemsearch/marvin/MolStructure.jsp?monomerid=477590

> <Link to Ligand-Target Pair in BindingDB>
http://www.bindingdb.org/jsp/dbsearch/PrimarySearch_ki.jsp?energyterm=kJ/mole&tag=r21&monomerid=477590&enzyme=Dihydroorotate+dehydrogenase&column=ki&startPg=0&Increment=50&submit=Search

> <PubChem CID>
129104692

> <PubChem SID>
442137207

$$$$

  Mrv2115 07222212352D          

 28 31  0  0  0  0            999 V2000
   -4.2868    2.4750    0.0000 C   0  0  0  0  0  0  0  0  0  0  0  0
   -3.5724    2.0625    0.0000 C   0  0  0  0  0  0  0  0  0  0  0  0
   -2.8579    2.4750    0.0000 C   0  0  0  0  0  0  0  0  0  0  0  0
   -2.1434    2.0625    0.0000 C   0  0  0  0  0  0  0  0  0  0  0  0
   -2.1434    1.2375    0.0000 C   0  0  0  0  0  0  0  0  0  0  0  0
   -1.4289    0.8250    0.0000 C   0  0  0  0  0  0  0  0  0  0  0  0
   -0.7145    1.2375    0.0000 C   0  0  0  0  0  0  0  0  0  0  0  0
    0.0000    0.8250    0.0000 C   0  0  0  0  0  0  0  0  0  0  0  0
    0.0000   -0.0000    0.0000 C   0  0  0  0  0  0  0  0  0  0  0  0
    0.7145   -0.4125    0.0000 C   0  0  0  0  0  0  0  0  0  0  0  0
    1.4289    0.0000    0.0000 N   0  0  0  0  0  0  0  0  0  0  0  0
    2.1434   -0.4125    0.0000 C   0  0  0  0  0  0  0  0  0  0  0  0
    2.8579    0.0000    0.0000 C   0  0  0  0  0  0  0  0  0  0  0  0
    3.5724   -0.4125    0.0000 N   0  0  0  0  0  0  0  0  0  0  0  0
    3.5724   -1.2375    0.0000 C   0  0  0  0  0  0  0  0  0  0  0  0
    2.8579   -1.6500    0.0000 C   0  0  0  0  0  0  0  0  0  0  0  0
    2.1434   -1.2375    0.0000 C   0  0  0  0  0  0  0  0  0  0  0  0
    1.4289   -1.6500    0.0000 C   0  0  0  0  0  0  0  0  0  0  0  0
    1.4289   -2.4750    0.0000 C   0  0  0  0  0  0  0  0  0  0  0  0
    0.7145   -2.8875    0.0000 O   0  0  0  0  0  0  0  0  0  0  0  0
    2.1434   -2.8875    0.0000 O   0  0  0  0  0  0  0  0  0  0  0  0
    0.7145   -1.2375    0.0000 C   0  0  0  0  0  0  0  0  0  0  0  0
    0.0000   -1.6500    0.0000 C   0  0  0  0  0  0  0  0  0  0  0  0
   -0.7145   -0.4125    0.0000 C   0  0  0  0  0  0  0  0  0  0  0  0
   -1.4289   -0.0000    0.0000 C   0  0  0  0  0  0  0  0  0  0  0  0
   -2.8579    0.8250    0.0000 C   0  0  0  0  0  0  0  0  0  0  0  0
   -2.8579   -0.0000    0.0000 Cl  0  0  0  0  0  0  0  0  0  0  0  0
   -3.5724    1.2375    0.0000 N   0  0  0  0  0  0  0  0  0  0  0  0
  1  2  1  0  0  0  0
  2  3  4  0  0  0  0
  3  4  4  0  0  0  0
  4  5  4  0  0  0  0
  5  6  1  0  0  0  0
  6  7  4  0  0  0  0
  7  8  4  0  0  0  0
  8  9  4  0  0  0  0
  9 10  1  0  0  0  0
 10 11  4  0  0  0  0
 11 12  4  0  0  0  0
 12 13  4  0  0  0  0
 13 14  4  0  0  0  0
 14 15  4  0  0  0  0
 15 16  4  0  0  0  0
 16 17  4  0  0  0  0
 12 17  4  0  0  0  0
 17 18  4  0  0  0  0
 18 19  1  0  0  0  0
 19 20  2  0  0  0  0
 19 21  1  0  0  0  0
 18 22  4  0  0  0  0
 10 22  4  0  0  0  0
 22 23  1  0  0  0  0
  9 24  4  0  0  0  0
 24 25  4  0  0  0  0
  6 25  4  0  0  0  0
  5 26  4  0  0  0  0
 26 27  1  0  0  0  0
 26 28  4  0  0  0  0
  2 28  4  0  0  0  0
M  END
> <IC50(uM)>
5.26

> <Outcome>
0.0

> <BindingDB ID>
51126166

> <BindingDB MonomerID>
50461853

> <BindingDB Ligand Name>
CHEMBL4226956

> <Curation/DataSource>
ChEMBL

> <Article DOI>
10.1021/acs.jmedchem.7b01862

> <PMID>
29727569

> <Patent Number>
?

> <Authors>
Madak, JT; Cuthbertson, CR; Miyata, Y; Tamura, S; Petrunak, EM; Stuckey, JA; Han, Y; He, M; Sun, D; Showalter, HD; Neamati, N

> <Link to Ligand in BindingDB>
http://www.bindingdb.org/bind/chemsearch/marvin/MolStructure.jsp?monomerid=50461853

> <Link to Ligand-Target Pair in BindingDB>
http://www.bindingdb.org/jsp/dbsearch/PrimarySearch_ki.jsp?energyterm=kJ/mole&tag=r21&monomerid=50461853&enzyme=Dihydroorotate+dehydrogenase&column=ki&startPg=0&Increment=50&submit=Search

> <PubChem CID>
145969286

> <PubChem SID>
433929118

$$$$

  Mrv2115 07222212352D          

 29 32  0  0  0  0            999 V2000
    4.0668    2.3479    0.0000 C   0  0  0  0  0  0  0  0  0  0  0  0
    3.3523    1.9354    0.0000 C   0  0  0  0  0  0  0  0  0  0  0  0
    3.3523    1.1104    0.0000 C   0  0  0  0  0  0  0  0  0  0  0  0
    2.6378    0.6979    0.0000 C   0  0  0  0  0  0  0  0  0  0  0  0
    2.6378   -0.1271    0.0000 C   0  0  0  0  0  0  0  0  0  0  0  0
    3.3523   -0.5396    0.0000 O   0  0  0  0  0  0  0  0  0  0  0  0
    1.9233   -0.5396    0.0000 O   0  0  0  0  0  0  0  0  0  0  0  0
    1.9233    1.1104    0.0000 C   0  0  0  0  0  0  0  0  0  0  0  0
    1.9233    1.9354    0.0000 C   0  0  0  0  0  0  0  0  0  0  0  0
    2.6378    2.3479    0.0000 C   0  0  0  0  0  0  0  0  0  0  0  0
    1.1387    2.1904    0.0000 N   0  0  0  0  0  0  0  0  0  0  0  0
    0.6538    1.5229    0.0000 C   0  0  0  0  0  0  0  0  0  0  0  0
   -0.1712    1.5229    0.0000 C   0  0  0  0  0  0  0  0  0  0  0  0
   -0.5837    0.8085    0.0000 C   0  0  0  0  0  0  0  0  0  0  0  0
   -1.4087    0.8085    0.0000 C   0  0  0  0  0  0  0  0  0  0  0  0
   -1.8212    1.5229    0.0000 C   0  0  0  0  0  0  0  0  0  0  0  0
   -2.6462    1.5229    0.0000 C   0  0  0  0  0  0  0  0  0  0  0  0
   -3.0587    0.8085    0.0000 C   0  0  0  0  0  0  0  0  0  0  0  0
   -3.8837    0.8085    0.0000 C   0  0  0  0  0  0  0  0  0  0  0  0
   -4.2962    1.5229    0.0000 C   0  0  0  0  0  0  0  0  0  0  0  0
   -5.1212    1.5229    0.0000 O   0  0  0  0  0  0  0  0  0  0  0  0
   -3.8837    2.2374    0.0000 C   0  0  0  0  0  0  0  0  0  0  0  0
   -3.0587    2.2374    0.0000 C   0  0  0  0  0  0  0  0  0  0  0  0
   -1.4087    2.2374    0.0000 C   0  0  0  0  0  0  0  0  0  0  0  0
   -0.5837    2.2374    0.0000 C   0  0  0  0  0  0  0  0  0  0  0  0
    1.1387    0.8555    0.0000 N   0  0  0  0  0  0  0  0  0  0  0  0
    0.8838    0.0709    0.0000 C   0  0  0  0  0  0  0  0  0  0  0  0
    1.4358   -0.5422    0.0000 C   0  0  0  0  0  0  0  0  0  0  0  0
    1.1809   -1.3268    0.0000 O   0  0  0  0  0  0  0  0  0  0  0  0
  1  2  1  0  0  0  0
  2  3  4  0  0  0  0
  3  4  4  0  0  0  0
  4  5  1  0  0  0  0
  5  6  2  0  0  0  0
  5  7  1  0  0  0  0
  4  8  4  0  0  0  0
  8  9  4  0  0  0  0
  9 10  4  0  0  0  0
  2 10  4  0  0  0  0
  9 11  4  0  0  0  0
 11 12  4  0  0  0  0
 12 13  1  0  0  0  0
 13 14  4  0  0  0  0
 14 15  4  0  0  0  0
 15 16  4  0  0  0  0
 16 17  1  0  0  0  0
 17 18  4  0  0  0  0
 18 19  4  0  0  0  0
 19 20  4  0  0  0  0
 20 21  1  0  0  0  0
 20 22  4  0  0  0  0
 22 23  4  0  0  0  0
 17 23  4  0  0  0  0
 16 24  4  0  0  0  0
 24 25  4  0  0  0  0
 13 25  4  0  0  0  0
 12 26  4  0  0  0  0
  8 26  4  0  0  0  0
 26 27  1  0  0  0  0
 27 28  1  0  0  0  0
 28 29  1  0  0  0  0
M  END
> <IC50(uM)>
2.145

> <Outcome>
0.0

> <BindingDB ID>
297799

> <BindingDB MonomerID>
155455

> <BindingDB Ligand Name>
US9006454, I97

> <Curation/DataSource>
US Patent

> <Article DOI>
?

> <PMID>
?

> <Patent Number>
US9006454

> <Authors>
Thunuguntla, SS; Subramanya, H; Kunnam, SR; Sanivaru Vijay, SR; Bingi, C; Kusanur, R; Schwarz, M; Arlt, M

> <Link to Ligand in BindingDB>
http://www.bindingdb.org/bind/chemsearch/marvin/MolStructure.jsp?monomerid=155455

> <Link to Ligand-Target Pair in BindingDB>
http://www.bindingdb.org/jsp/dbsearch/PrimarySearch_ki.jsp?energyterm=kJ/mole&tag=r21&monomerid=155455&enzyme=Dihydroorotate+dehydrogenase&column=ki&startPg=0&Increment=50&submit=Search

> <PubChem CID>
58073828

> <PubChem SID>
253658392

$$$$

  Mrv2115 07222212352D          

 27 29  0  0  0  0            999 V2000
   -2.1434   -0.4125    0.0000 C   0  0  0  0  0  0  0  0  0  0  0  0
   -2.1434   -1.2375    0.0000 C   0  0  0  0  0  0  0  0  0  0  0  0
   -2.8579   -1.6500    0.0000 O   0  0  0  0  0  0  0  0  0  0  0  0
   -2.8579   -2.4750    0.0000 C   0  0  0  0  0  0  0  0  0  0  0  0
   -2.1434   -2.8875    0.0000 C   0  0  0  0  0  0  0  0  0  0  0  0
   -2.1434   -3.7125    0.0000 C   0  0  0  0  0  0  0  0  0  0  0  0
   -2.8579   -4.1250    0.0000 C   0  0  0  0  0  0  0  0  0  0  0  0
   -3.5724   -3.7125    0.0000 C   0  0  0  0  0  0  0  0  0  0  0  0
   -4.2868   -4.1250    0.0000 C   0  0  0  0  0  0  0  0  0  0  0  0
   -4.2868   -4.9500    0.0000 C   0  0  0  0  0  0  0  0  0  0  0  0
   -5.0013   -5.3625    0.0000 C   0  0  0  0  0  0  0  0  0  0  0  0
   -5.0013   -6.1875    0.0000 F   0  0  0  0  0  0  0  0  0  0  0  0
   -5.7158   -4.9500    0.0000 C   0  0  0  0  0  0  0  0  0  0  0  0
   -6.4302   -5.3625    0.0000 N   0  0  0  0  0  0  0  0  0  0  0  0
   -6.4302   -6.1875    0.0000 C   0  0  0  0  0  0  0  0  0  0  0  0
   -5.7158   -6.6000    0.0000 N   0  0  0  0  0  0  0  0  0  0  0  0
   -5.7158   -7.4250    0.0000 C   0  0  0  0  0  0  0  0  0  0  0  0
   -6.4302   -7.8375    0.0000 C   0  0  0  0  0  0  0  0  0  0  0  0
   -7.1447   -7.4250    0.0000 C   0  0  0  0  0  0  0  0  0  0  0  0
   -7.1447   -6.6000    0.0000 C   0  0  0  0  0  0  0  0  0  0  0  0
   -7.8592   -6.1875    0.0000 C   0  0  0  0  0  0  0  0  0  0  0  0
   -7.8592   -5.3625    0.0000 O   0  0  0  0  0  0  0  0  0  0  0  0
   -8.5737   -6.6000    0.0000 O   0  0  0  0  0  0  0  0  0  0  0  0
   -5.7158   -4.1250    0.0000 C   0  0  0  0  0  0  0  0  0  0  0  0
   -6.4302   -3.7125    0.0000 F   0  0  0  0  0  0  0  0  0  0  0  0
   -5.0013   -3.7125    0.0000 C   0  0  0  0  0  0  0  0  0  0  0  0
   -3.5724   -2.8875    0.0000 C   0  0  0  0  0  0  0  0  0  0  0  0
  1  2  1  0  0  0  0
  2  3  1  0  0  0  0
  3  4  1  0  0  0  0
  4  5  4  0  0  0  0
  5  6  4  0  0  0  0
  6  7  4  0  0  0  0
  7  8  4  0  0  0  0
  8  9  1  0  0  0  0
  9 10  4  0  0  0  0
 10 11  4  0  0  0  0
 11 12  1  0  0  0  0
 11 13  4  0  0  0  0
 13 14  1  0  0  0  0
 14 15  1  0  0  0  0
 15 16  4  0  0  0  0
 16 17  4  0  0  0  0
 17 18  4  0  0  0  0
 18 19  4  0  0  0  0
 19 20  4  0  0  0  0
 15 20  4  0  0  0  0
 20 21  1  0  0  0  0
 21 22  2  0  0  0  0
 21 23  1  0  0  0  0
 13 24  4  0  0  0  0
 24 25  1  0  0  0  0
 24 26  4  0  0  0  0
  9 26  4  0  0  0  0
  8 27  4  0  0  0  0
  4 27  4  0  0  0  0
M  END
> <IC50(uM)>
0.019

> <Outcome>
1.0

> <BindingDB ID>
246904; 51186843

> <BindingDB MonomerID>
119811

> <BindingDB Ligand Name>
US8691852, 19

> <Curation/DataSource>
US Patent; ChEMBL

> <Article DOI>
?; 10.1007/s00044-011-9837-4

> <PMID>
?

> <Patent Number>
US8691852; ?

> <Authors>
Castro Palomino Laria, JC; Erra Sola, M; Lozoya Toribio, ME; Navarro Romero, E; n/a

> <Link to Ligand in BindingDB>
http://www.bindingdb.org/bind/chemsearch/marvin/MolStructure.jsp?monomerid=119811

> <Link to Ligand-Target Pair in BindingDB>
http://www.bindingdb.org/jsp/dbsearch/PrimarySearch_ki.jsp?energyterm=kJ/mole&tag=r21&monomerid=119811&enzyme=Dihydroorotate+dehydrogenase&column=ki&startPg=0&Increment=50&submit=Search

> <PubChem CID>
24986825

> <PubChem SID>
220230605

$$$$

  Mrv2115 07222212352D          

 28 30  0  0  0  0            999 V2000
    0.7145    1.2375    0.0000 C   0  0  0  0  0  0  0  0  0  0  0  0
    1.4289    0.8250    0.0000 C   0  0  0  0  0  0  0  0  0  0  0  0
    1.4289   -0.0000    0.0000 C   0  0  0  0  0  0  0  0  0  0  0  0
    2.1434   -0.4125    0.0000 C   0  0  0  0  0  0  0  0  0  0  0  0
    0.7145   -0.4125    0.0000 N   0  0  0  0  0  0  0  0  0  0  0  0
    0.0000    0.0000    0.0000 N   0  0  0  0  0  0  0  0  0  0  0  0
   -0.7145   -0.4125    0.0000 C   0  0  0  0  0  0  0  0  0  0  0  0
   -1.4289    0.0000    0.0000 C   0  0  0  0  0  0  0  0  0  0  0  0
   -2.1434   -0.4125    0.0000 C   0  0  0  0  0  0  0  0  0  0  0  0
   -2.8579    0.0000    0.0000 C   0  0  0  0  0  0  0  0  0  0  0  0
   -2.8579    0.8250    0.0000 C   0  0  0  0  0  0  0  0  0  0  0  0
   -2.1434    1.2375    0.0000 C   0  0  0  0  0  0  0  0  0  0  0  0
   -1.4289    0.8250    0.0000 C   0  0  0  0  0  0  0  0  0  0  0  0
   -0.7145    1.2375    0.0000 C   0  0  0  0  0  0  0  0  0  0  0  0
    0.0000    0.8250    0.0000 O   0  0  0  0  0  0  0  0  0  0  0  0
   -0.7145    2.0625    0.0000 O   0  0  0  0  0  0  0  0  0  0  0  0
    0.7145   -1.2375    0.0000 C   0  0  0  0  0  0  0  0  0  0  0  0
    1.3819   -1.7224    0.0000 N   0  0  0  0  0  0  0  0  0  0  0  0
    1.1270   -2.5070    0.0000 C   0  0  0  0  0  0  0  0  0  0  0  0
    1.6119   -3.1745    0.0000 C   0  0  0  0  0  0  0  0  0  0  0  0
    2.4324   -3.0882    0.0000 C   0  0  0  0  0  0  0  0  0  0  0  0
    2.9173   -3.7557    0.0000 C   0  0  0  0  0  0  0  0  0  0  0  0
    2.5817   -4.5094    0.0000 C   0  0  0  0  0  0  0  0  0  0  0  0
    1.7613   -4.5956    0.0000 C   0  0  0  0  0  0  0  0  0  0  0  0
    1.2763   -3.9282    0.0000 C   0  0  0  0  0  0  0  0  0  0  0  0
    0.4559   -4.0144    0.0000 Cl  0  0  0  0  0  0  0  0  0  0  0  0
    0.3020   -2.5070    0.0000 C   0  0  0  0  0  0  0  0  0  0  0  0
    0.0470   -1.7224    0.0000 S   0  0  0  0  0  0  0  0  0  0  0  0
  1  2  1  0  0  0  0
  2  3  1  0  0  0  0
  3  4  1  0  0  0  0
  3  5  1  0  0  0  0
  5  6  1  0  0  0  0
  6  7  2  0  0  0  0
  7  8  1  0  0  0  0
  8  9  4  0  0  0  0
  9 10  4  0  0  0  0
 10 11  4  0  0  0  0
 11 12  4  0  0  0  0
 12 13  4  0  0  0  0
  8 13  4  0  0  0  0
 13 14  1  0  0  0  0
 14 15  2  0  0  0  0
 14 16  1  0  0  0  0
  5 17  1  0  0  0  0
 17 18  4  0  0  0  0
 18 19  4  0  0  0  0
 19 20  1  0  0  0  0
 20 21  4  0  0  0  0
 21 22  4  0  0  0  0
 22 23  4  0  0  0  0
 23 24  4  0  0  0  0
 24 25  4  0  0  0  0
 20 25  4  0  0  0  0
 25 26  1  0  0  0  0
 19 27  4  0  0  0  0
 27 28  4  0  0  0  0
 17 28  4  0  0  0  0
M  END
> <IC50(uM)>
0.024399999999999998

> <Outcome>
1.0

> <BindingDB ID>
1001114

> <BindingDB MonomerID>
482800

> <BindingDB Ligand Name>
US10919869, No.  5

> <Curation/DataSource>
US Patent

> <Article DOI>
?

> <PMID>
?

> <Patent Number>
US10919869

> <Authors>
Li, H; Xu, Y; Wang, R; Zhao, Z; Song, W; Xu, L

> <Link to Ligand in BindingDB>
http://www.bindingdb.org/bind/chemsearch/marvin/MolStructure.jsp?monomerid=482800

> <Link to Ligand-Target Pair in BindingDB>
http://www.bindingdb.org/jsp/dbsearch/PrimarySearch_ki.jsp?energyterm=kJ/mole&tag=r21&monomerid=482800&enzyme=Dihydroorotate+dehydrogenase&column=ki&startPg=0&Increment=50&submit=Search

> <PubChem CID>
132157980

> <PubChem SID>
443551941

$$$$

  Mrv2115 07222212352D          

 37 41  0  0  0  0            999 V2000
   -5.1659    1.4455    0.0000 C   0  0  0  0  0  0  0  0  0  0  0  0
   -4.3409    1.4455    0.0000 C   0  0  0  0  0  0  0  0  0  0  0  0
   -3.9284    2.1599    0.0000 C   0  0  0  0  0  0  0  0  0  0  0  0
   -3.1034    2.1599    0.0000 C   0  0  0  0  0  0  0  0  0  0  0  0
   -2.5514    2.7730    0.0000 N   0  0  0  0  0  0  0  0  0  0  0  0
   -1.7977    2.4375    0.0000 N   0  0  0  0  0  0  0  0  0  0  0  0
   -1.8840    1.6170    0.0000 C   0  0  0  0  0  0  0  0  0  0  0  0
   -2.6909    1.4455    0.0000 C   0  0  0  0  0  0  0  0  0  0  0  0
   -3.1034    0.7310    0.0000 C   0  0  0  0  0  0  0  0  0  0  0  0
   -3.9284    0.7310    0.0000 C   0  0  0  0  0  0  0  0  0  0  0  0
   -4.3409    0.0165    0.0000 N   0  0  0  0  0  0  0  0  0  0  0  0
   -3.9284   -0.6979    0.0000 C   0  0  0  0  0  0  0  0  0  0  0  0
   -4.3409   -1.4124    0.0000 O   0  0  0  0  0  0  0  0  0  0  0  0
   -3.1034   -0.6979    0.0000 C   0  0  0  0  0  0  0  0  0  0  0  0
   -2.6909    0.0165    0.0000 C   0  0  0  0  0  0  0  0  0  0  0  0
   -1.8659    0.0165    0.0000 C   0  0  0  0  0  0  0  0  0  0  0  0
   -1.4534    0.7310    0.0000 F   0  0  0  0  0  0  0  0  0  0  0  0
   -1.4534   -0.6979    0.0000 C   0  0  0  0  0  0  0  0  0  0  0  0
   -0.6284   -0.6979    0.0000 N   0  0  0  0  0  0  0  0  0  0  0  0
   -0.1435   -1.3654    0.0000 N   0  0  0  0  0  0  0  0  0  0  0  0
    0.6411   -1.1104    0.0000 C   0  0  0  0  0  0  0  0  0  0  0  0
    0.6411   -0.2854    0.0000 N   0  0  0  0  0  0  0  0  0  0  0  0
   -0.1435   -0.0305    0.0000 C   0  0  0  0  0  0  0  0  0  0  0  0
   -0.3984    0.7541    0.0000 O   0  0  0  0  0  0  0  0  0  0  0  0
    1.3556    0.1271    0.0000 C   0  0  0  0  0  0  0  0  0  0  0  0
    2.0701   -0.2854    0.0000 C   0  0  0  0  0  0  0  0  0  0  0  0
    2.0701   -1.1104    0.0000 C   0  0  0  0  0  0  0  0  0  0  0  0
    1.3556   -1.5229    0.0000 C   0  0  0  0  0  0  0  0  0  0  0  0
   -1.8659   -1.4124    0.0000 C   0  0  0  0  0  0  0  0  0  0  0  0
   -2.6909   -1.4124    0.0000 C   0  0  0  0  0  0  0  0  0  0  0  0
   -3.1034   -2.1269    0.0000 O   0  0  0  0  0  0  0  0  0  0  0  0
   -2.6909   -2.8414    0.0000 C   0  0  0  0  0  0  0  0  0  0  0  0
   -1.8659   -2.8414    0.0000 C   0  0  0  0  0  0  0  0  0  0  0  0
   -3.1034   -3.5558    0.0000 C   0  0  0  0  0  0  0  0  0  0  0  0
   -3.8179   -3.1433    0.0000 F   0  0  0  0  0  0  0  0  0  0  0  0
   -2.3890   -3.9683    0.0000 F   0  0  0  0  0  0  0  0  0  0  0  0
   -3.5159   -4.2703    0.0000 F   0  0  0  0  0  0  0  0  0  0  0  0
  1  2  1  0  0  0  0
  2  3  4  0  0  0  0
  3  4  4  0  0  0  0
  4  5  4  0  0  0  0
  5  6  4  0  0  0  0
  6  7  4  0  0  0  0
  7  8  4  0  0  0  0
  4  8  4  0  0  0  0
  8  9  4  0  0  0  0
  9 10  4  0  0  0  0
  2 10  4  0  0  0  0
 10 11  1  0  0  0  0
 11 12  1  0  0  0  0
 12 13  2  0  0  0  0
 12 14  1  0  0  0  0
 14 15  4  0  0  0  0
 15 16  4  0  0  0  0
 16 17  1  0  0  0  0
 16 18  4  0  0  0  0
 18 19  1  0  0  0  0
 19 20  4  0  0  0  0
 20 21  4  0  0  0  0
 21 22  4  0  0  0  0
 22 23  4  0  0  0  0
 19 23  4  0  0  0  0
 23 24  2  0  0  0  0
 22 25  1  0  0  0  0
 25 26  1  0  0  0  0
 26 27  1  0  0  0  0
 27 28  1  0  0  0  0
 21 28  1  0  0  0  0
 18 29  4  0  0  0  0
 29 30  4  0  0  0  0
 14 30  4  0  0  0  0
 30 31  1  0  0  0  0
 31 32  1  0  0  0  0
 32 33  1  0  0  0  0
 32 34  1  0  0  0  0
 34 35  1  0  0  0  0
 34 36  1  0  0  0  0
 34 37  1  0  0  0  0
M  STY  1   1 DAT
M  SAL   1  1   5
M  SDT   1 MRV_IMPLICIT_H                                        
M  SDD   1     0.5304   -0.4125    DR    ALL  0       0  
M  SED   1 IMPL_H1
M  END
> <IC50(uM)>
0.045

> <Outcome>
1.0

> <BindingDB ID>
1020489

> <BindingDB MonomerID>
490437

> <BindingDB Ligand Name>
5-fluoro-N-(6-methyl-1H-indazol-5-yl)-4-(3-oxo-5,6,7,8-tetrahydro[1,2,4]triazolo[4,3-a]pyridin-2(3H)-yl)-2-{[(2S)-1,1,1-trifluoropropan-2-yl]oxy}benzamide::US10968216, Example 105

> <Curation/DataSource>
US Patent

> <Article DOI>
?

> <PMID>
?

> <Patent Number>
US10968216

> <Authors>
Gradl, SN; Nguyen, D; Eis, K; Gunther, J; Stellfeld, T; Janzer, A; Christian, S; Mueller, T; Sheikh, SE; Zhou, HJ; Zhao, C; Sykes, DB; Ferrara, SJ; Liu, K; Herbert, SA; Merz, C; Niehues, M; Nising, CF; Schafer, M; Zimmermann, K; Knablein, J; Thede, K; Faupel, T

> <Link to Ligand in BindingDB>
http://www.bindingdb.org/bind/chemsearch/marvin/MolStructure.jsp?monomerid=490437

> <Link to Ligand-Target Pair in BindingDB>
http://www.bindingdb.org/jsp/dbsearch/PrimarySearch_ki.jsp?energyterm=kJ/mole&tag=r21&monomerid=490437&enzyme=Dihydroorotate+dehydrogenase&column=ki&startPg=0&Increment=50&submit=Search

> <PubChem CID>
134474347

> <PubChem SID>
447117164

$$$$

  Mrv2115 07222212352D          

 34 37  0  0  0  0            999 V2000
   -0.6284    2.1599    0.0000 C   0  0  0  0  0  0  0  0  0  0  0  0
   -1.4534    2.1599    0.0000 C   0  0  0  0  0  0  0  0  0  0  0  0
   -1.8659    1.4455    0.0000 C   0  0  0  0  0  0  0  0  0  0  0  0
   -2.6909    1.4455    0.0000 C   0  0  0  0  0  0  0  0  0  0  0  0
   -3.1034    2.1599    0.0000 C   0  0  0  0  0  0  0  0  0  0  0  0
   -3.1034    0.7310    0.0000 O   0  0  0  0  0  0  0  0  0  0  0  0
   -2.6909    0.0165    0.0000 C   0  0  0  0  0  0  0  0  0  0  0  0
   -1.8659    0.0165    0.0000 C   0  0  0  0  0  0  0  0  0  0  0  0
   -1.4534   -0.6979    0.0000 C   0  0  0  0  0  0  0  0  0  0  0  0
   -0.6284   -0.6979    0.0000 N   0  0  0  0  0  0  0  0  0  0  0  0
   -0.1435   -1.3654    0.0000 N   0  0  0  0  0  0  0  0  0  0  0  0
    0.6411   -1.1104    0.0000 C   0  0  0  0  0  0  0  0  0  0  0  0
    0.6411   -0.2854    0.0000 N   0  0  0  0  0  0  0  0  0  0  0  0
   -0.1435   -0.0305    0.0000 C   0  0  0  0  0  0  0  0  0  0  0  0
   -0.3984    0.7541    0.0000 O   0  0  0  0  0  0  0  0  0  0  0  0
    1.3556    0.1271    0.0000 C   0  0  0  0  0  0  0  0  0  0  0  0
    2.0701   -0.2854    0.0000 C   0  0  0  0  0  0  0  0  0  0  0  0
    2.0701   -1.1104    0.0000 C   0  0  0  0  0  0  0  0  0  0  0  0
    1.3556   -1.5229    0.0000 C   0  0  0  0  0  0  0  0  0  0  0  0
   -1.8659   -1.4124    0.0000 C   0  0  0  0  0  0  0  0  0  0  0  0
   -1.4534   -2.1269    0.0000 F   0  0  0  0  0  0  0  0  0  0  0  0
   -2.6909   -1.4124    0.0000 C   0  0  0  0  0  0  0  0  0  0  0  0
   -3.1034   -0.6979    0.0000 C   0  0  0  0  0  0  0  0  0  0  0  0
   -3.9284   -0.6979    0.0000 C   0  0  0  0  0  0  0  0  0  0  0  0
   -4.3409    0.0165    0.0000 O   0  0  0  0  0  0  0  0  0  0  0  0
   -4.3409   -1.4124    0.0000 N   0  0  0  0  0  0  0  0  0  0  0  0
   -3.9284   -2.1269    0.0000 C   0  0  0  0  0  0  0  0  0  0  0  0
   -3.1034   -2.1269    0.0000 C   0  0  0  0  0  0  0  0  0  0  0  0
   -2.6909   -2.8414    0.0000 C   0  0  0  0  0  0  0  0  0  0  0  0
   -3.1034   -3.5558    0.0000 C   0  0  0  0  0  0  0  0  0  0  0  0
   -3.9284   -3.5558    0.0000 C   0  0  0  0  0  0  0  0  0  0  0  0
   -4.3409   -2.8414    0.0000 C   0  0  0  0  0  0  0  0  0  0  0  0
   -5.1659   -2.8414    0.0000 N   0  0  0  0  0  0  0  0  0  0  0  0
   -5.5784   -2.1269    0.0000 C   0  0  0  0  0  0  0  0  0  0  0  0
  1  2  1  0  0  0  0
  2  3  1  0  0  0  0
  3  4  1  0  0  0  0
  4  5  1  0  0  0  0
  4  6  1  0  0  0  0
  6  7  1  0  0  0  0
  7  8  4  0  0  0  0
  8  9  4  0  0  0  0
  9 10  1  0  0  0  0
 10 11  4  0  0  0  0
 11 12  4  0  0  0  0
 12 13  4  0  0  0  0
 13 14  4  0  0  0  0
 10 14  4  0  0  0  0
 14 15  2  0  0  0  0
 13 16  1  0  0  0  0
 16 17  1  0  0  0  0
 17 18  1  0  0  0  0
 18 19  1  0  0  0  0
 12 19  1  0  0  0  0
  9 20  4  0  0  0  0
 20 21  1  0  0  0  0
 20 22  4  0  0  0  0
 22 23  4  0  0  0  0
  7 23  4  0  0  0  0
 23 24  1  0  0  0  0
 24 25  2  0  0  0  0
 24 26  1  0  0  0  0
 26 27  1  0  0  0  0
 27 28  4  0  0  0  0
 28 29  4  0  0  0  0
 29 30  4  0  0  0  0
 30 31  4  0  0  0  0
 31 32  4  0  0  0  0
 27 32  4  0  0  0  0
 32 33  1  0  0  0  0
 33 34  1  0  0  0  0
M  END
> <IC50(uM)>
0.0015

> <Outcome>
1.0

> <BindingDB ID>
1020401

> <BindingDB MonomerID>
490357

> <BindingDB Ligand Name>
5-fluoro-N-[2-(methylamino)phenyl]-4-(3-oxo-5,6,7,8-tetrahydro[1,2,4]triazolo[4,3-a]pyridin-2(3H)-yl)-2-[(2S)-pentan-2-yloxy]benzamide::US10968216, Example 25

> <Curation/DataSource>
US Patent

> <Article DOI>
?

> <PMID>
?

> <Patent Number>
US10968216

> <Authors>
Gradl, SN; Nguyen, D; Eis, K; Gunther, J; Stellfeld, T; Janzer, A; Christian, S; Mueller, T; Sheikh, SE; Zhou, HJ; Zhao, C; Sykes, DB; Ferrara, SJ; Liu, K; Herbert, SA; Merz, C; Niehues, M; Nising, CF; Schafer, M; Zimmermann, K; Knablein, J; Thede, K; Faupel, T

> <Link to Ligand in BindingDB>
http://www.bindingdb.org/bind/chemsearch/marvin/MolStructure.jsp?monomerid=490357

> <Link to Ligand-Target Pair in BindingDB>
http://www.bindingdb.org/jsp/dbsearch/PrimarySearch_ki.jsp?energyterm=kJ/mole&tag=r21&monomerid=490357&enzyme=Dihydroorotate+dehydrogenase&column=ki&startPg=0&Increment=50&submit=Search

> <PubChem CID>
134474195

> <PubChem SID>
447117084

$$$$

  Mrv2115 07222212352D          

 32 36  0  0  0  0            999 V2000
   -0.1712   -0.6979    0.0000 C   0  0  0  0  0  0  0  0  0  0  0  0
    0.6538   -0.6979    0.0000 C   0  0  0  0  0  0  0  0  0  0  0  0
    1.1387   -0.0305    0.0000 N   0  0  0  0  0  0  0  0  0  0  0  0
    1.9233   -0.2854    0.0000 C   0  0  0  0  0  0  0  0  0  0  0  0
    2.6378    0.1271    0.0000 C   0  0  0  0  0  0  0  0  0  0  0  0
    2.6378    0.9521    0.0000 C   0  0  0  0  0  0  0  0  0  0  0  0
    3.3523    1.3646    0.0000 O   0  0  0  0  0  0  0  0  0  0  0  0
    1.9233    1.3646    0.0000 O   0  0  0  0  0  0  0  0  0  0  0  0
    3.3523   -0.2854    0.0000 C   0  0  0  0  0  0  0  0  0  0  0  0
    3.3523   -1.1104    0.0000 C   0  0  0  0  0  0  0  0  0  0  0  0
    4.0668   -1.5229    0.0000 C   0  0  0  0  0  0  0  0  0  0  0  0
    4.7812   -1.1104    0.0000 C   0  0  0  0  0  0  0  0  0  0  0  0
    5.4957   -1.5229    0.0000 C   0  0  0  0  0  0  0  0  0  0  0  0
    5.4957   -2.3479    0.0000 C   0  0  0  0  0  0  0  0  0  0  0  0
    6.2102   -2.7604    0.0000 C   0  0  0  0  0  0  0  0  0  0  0  0
    6.9246   -2.3479    0.0000 C   0  0  0  0  0  0  0  0  0  0  0  0
    7.6391   -2.7604    0.0000 C   0  0  0  0  0  0  0  0  0  0  0  0
    7.6391   -3.5854    0.0000 C   0  0  0  0  0  0  0  0  0  0  0  0
    6.9246   -3.9979    0.0000 C   0  0  0  0  0  0  0  0  0  0  0  0
    6.2102   -3.5854    0.0000 C   0  0  0  0  0  0  0  0  0  0  0  0
    5.4957   -3.9979    0.0000 C   0  0  0  0  0  0  0  0  0  0  0  0
    5.4957   -4.8229    0.0000 N   0  0  0  0  0  0  0  0  0  0  0  0
    6.1631   -5.3079    0.0000 C   0  0  0  0  0  0  0  0  0  0  0  0
    5.9082   -6.0925    0.0000 C   0  0  0  0  0  0  0  0  0  0  0  0
    5.0832   -6.0925    0.0000 C   0  0  0  0  0  0  0  0  0  0  0  0
    4.5983   -6.7599    0.0000 F   0  0  0  0  0  0  0  0  0  0  0  0
    4.8283   -5.3079    0.0000 C   0  0  0  0  0  0  0  0  0  0  0  0
    4.7812   -2.7604    0.0000 C   0  0  0  0  0  0  0  0  0  0  0  0
    4.0668   -2.3479    0.0000 C   0  0  0  0  0  0  0  0  0  0  0  0
    2.6378   -1.5229    0.0000 C   0  0  0  0  0  0  0  0  0  0  0  0
    1.9233   -1.1104    0.0000 C   0  0  0  0  0  0  0  0  0  0  0  0
    1.1387   -1.3654    0.0000 N   0  0  0  0  0  0  0  0  0  0  0  0
  1  2  1  0  0  0  0
  2  3  4  0  0  0  0
  3  4  4  0  0  0  0
  4  5  4  0  0  0  0
  5  6  1  0  0  0  0
  6  7  2  0  0  0  0
  6  8  1  0  0  0  0
  5  9  4  0  0  0  0
  9 10  4  0  0  0  0
 10 11  1  0  0  0  0
 11 12  4  0  0  0  0
 12 13  4  0  0  0  0
 13 14  4  0  0  0  0
 14 15  1  0  0  0  0
 15 16  4  0  0  0  0
 16 17  4  0  0  0  0
 17 18  4  0  0  0  0
 18 19  4  0  0  0  0
 19 20  4  0  0  0  0
 15 20  4  0  0  0  0
 20 21  1  0  0  0  0
 21 22  1  0  0  0  0
 22 23  1  0  0  0  0
 23 24  1  0  0  0  0
 24 25  1  0  0  0  0
 25 26  1  0  0  0  0
 25 27  1  0  0  0  0
 22 27  1  0  0  0  0
 14 28  4  0  0  0  0
 28 29  4  0  0  0  0
 11 29  4  0  0  0  0
 10 30  4  0  0  0  0
 30 31  4  0  0  0  0
  4 31  4  0  0  0  0
 31 32  4  0  0  0  0
  2 32  4  0  0  0  0
M  STY  1   1 DAT
M  SAL   1  1  32
M  SDT   1 MRV_IMPLICIT_H                                        
M  SDD   1     0.5304   -0.4125    DR    ALL  0       0  
M  SED   1 IMPL_H1
M  END
> <IC50(uM)>
0.0055

> <Outcome>
1.0

> <BindingDB ID>
1045614

> <BindingDB MonomerID>
501672

> <BindingDB Ligand Name>
US11028054, Example 117

> <Curation/DataSource>
US Patent

> <Article DOI>
?

> <PMID>
?

> <Patent Number>
US11028054

> <Authors>
Thunuguntla, SS; Hosahalli, S; Panigrahi, SK; Schwarz, M; Arit, M

> <Link to Ligand in BindingDB>
http://www.bindingdb.org/bind/chemsearch/marvin/MolStructure.jsp?monomerid=501672

> <Link to Ligand-Target Pair in BindingDB>
http://www.bindingdb.org/jsp/dbsearch/PrimarySearch_ki.jsp?energyterm=kJ/mole&tag=r21&monomerid=501672&enzyme=Dihydroorotate+dehydrogenase&column=ki&startPg=0&Increment=50&submit=Search

> <PubChem CID>
?

> <PubChem SID>
?

$$$$

  Mrv2115 07222212352D          

 24 26  0  0  0  0            999 V2000
    2.1434   -2.8875    0.0000 C   0  0  0  0  0  0  0  0  0  0  0  0
    2.1434   -3.7125    0.0000 C   0  0  0  0  0  0  0  0  0  0  0  0
    1.4289   -4.1250    0.0000 C   0  0  0  0  0  0  0  0  0  0  0  0
    1.4289   -4.9500    0.0000 C   0  0  0  0  0  0  0  0  0  0  0  0
    2.1434   -5.3625    0.0000 C   0  0  0  0  0  0  0  0  0  0  0  0
    2.1434   -6.1875    0.0000 N   0  0  0  0  0  0  0  0  0  0  0  0
    1.4289   -6.6000    0.0000 C   0  0  0  0  0  0  0  0  0  0  0  0
    1.4289   -7.4250    0.0000 C   0  0  0  0  0  0  0  0  0  0  0  0
    0.7145   -7.8375    0.0000 C   0  0  0  0  0  0  0  0  0  0  0  0
    0.0000   -7.4250    0.0000 C   0  0  0  0  0  0  0  0  0  0  0  0
   -0.7145   -7.8375    0.0000 C   0  0  0  0  0  0  0  0  0  0  0  0
   -0.7145   -8.6625    0.0000 C   0  0  0  0  0  0  0  0  0  0  0  0
   -1.4289   -9.0750    0.0000 C   0  0  0  0  0  0  0  0  0  0  0  0
   -2.1434   -8.6625    0.0000 C   0  0  0  0  0  0  0  0  0  0  0  0
   -2.1434   -7.8375    0.0000 C   0  0  0  0  0  0  0  0  0  0  0  0
   -1.4289   -7.4250    0.0000 C   0  0  0  0  0  0  0  0  0  0  0  0
   -1.4289   -6.6000    0.0000 Cl  0  0  0  0  0  0  0  0  0  0  0  0
    0.0000   -6.6000    0.0000 N   0  0  0  0  0  0  0  0  0  0  0  0
    0.7145   -6.1875    0.0000 C   0  0  0  0  0  0  0  0  0  0  0  0
    2.8579   -4.9500    0.0000 C   0  0  0  0  0  0  0  0  0  0  0  0
    3.5724   -5.3625    0.0000 C   0  0  0  0  0  0  0  0  0  0  0  0
    4.2868   -4.9500    0.0000 O   0  0  0  0  0  0  0  0  0  0  0  0
    3.5724   -6.1875    0.0000 O   0  0  0  0  0  0  0  0  0  0  0  0
    2.8579   -4.1250    0.0000 C   0  0  0  0  0  0  0  0  0  0  0  0
  1  2  1  0  0  0  0
  2  3  4  0  0  0  0
  3  4  4  0  0  0  0
  4  5  4  0  0  0  0
  5  6  1  0  0  0  0
  6  7  1  0  0  0  0
  7  8  4  0  0  0  0
  8  9  4  0  0  0  0
  9 10  4  0  0  0  0
 10 11  1  0  0  0  0
 11 12  4  0  0  0  0
 12 13  4  0  0  0  0
 13 14  4  0  0  0  0
 14 15  4  0  0  0  0
 15 16  4  0  0  0  0
 11 16  4  0  0  0  0
 16 17  1  0  0  0  0
 10 18  4  0  0  0  0
 18 19  4  0  0  0  0
  7 19  4  0  0  0  0
  5 20  4  0  0  0  0
 20 21  1  0  0  0  0
 21 22  2  0  0  0  0
 21 23  1  0  0  0  0
 20 24  4  0  0  0  0
  2 24  4  0  0  0  0
M  END
> <IC50(uM)>
0.032

> <Outcome>
1.0

> <BindingDB ID>
220005

> <BindingDB MonomerID>
102475

> <BindingDB Ligand Name>
US8536165, 71

> <Curation/DataSource>
US Patent

> <Article DOI>
?

> <PMID>
?

> <Patent Number>
US8536165

> <Authors>
Castro Palomino Laria, JC; Terricabras Belart, E; Erra Sola, M; Navarro Romero, E; Fonquerna Pou, S; Cardus Figueras, A; Lozoya Toribio, ME

> <Link to Ligand in BindingDB>
http://www.bindingdb.org/bind/chemsearch/marvin/MolStructure.jsp?monomerid=102475

> <Link to Ligand-Target Pair in BindingDB>
http://www.bindingdb.org/jsp/dbsearch/PrimarySearch_ki.jsp?energyterm=kJ/mole&tag=r21&monomerid=102475&enzyme=Dihydroorotate+dehydrogenase&column=ki&startPg=0&Increment=50&submit=Search

> <PubChem CID>
25188115

> <PubChem SID>
172097766

$$$$

  Mrv2115 07222212352D          

 36 39  0  0  0  0            999 V2000
   -5.1659    1.4455    0.0000 C   0  0  0  0  0  0  0  0  0  0  0  0
   -5.5784    0.7310    0.0000 C   0  0  0  0  0  0  0  0  0  0  0  0
   -6.4034    0.7310    0.0000 C   0  0  0  0  0  0  0  0  0  0  0  0
   -6.8159    0.0165    0.0000 C   0  0  0  0  0  0  0  0  0  0  0  0
   -7.6409    0.0165    0.0000 F   0  0  0  0  0  0  0  0  0  0  0  0
   -6.4034   -0.6979    0.0000 C   0  0  0  0  0  0  0  0  0  0  0  0
   -5.5784   -0.6979    0.0000 C   0  0  0  0  0  0  0  0  0  0  0  0
   -5.1659   -1.4124    0.0000 Cl  0  0  0  0  0  0  0  0  0  0  0  0
   -5.1659    0.0165    0.0000 C   0  0  0  0  0  0  0  0  0  0  0  0
   -4.3409    0.0165    0.0000 N   0  0  0  0  0  0  0  0  0  0  0  0
   -3.9284   -0.6979    0.0000 C   0  0  0  0  0  0  0  0  0  0  0  0
   -4.3409   -1.4124    0.0000 O   0  0  0  0  0  0  0  0  0  0  0  0
   -3.1034   -0.6979    0.0000 C   0  0  0  0  0  0  0  0  0  0  0  0
   -2.6909    0.0165    0.0000 C   0  0  0  0  0  0  0  0  0  0  0  0
   -1.8659    0.0165    0.0000 C   0  0  0  0  0  0  0  0  0  0  0  0
   -1.4534    0.7310    0.0000 F   0  0  0  0  0  0  0  0  0  0  0  0
   -1.4534   -0.6979    0.0000 C   0  0  0  0  0  0  0  0  0  0  0  0
   -0.6284   -0.6979    0.0000 N   0  0  0  0  0  0  0  0  0  0  0  0
   -0.1435   -1.3654    0.0000 N   0  0  0  0  0  0  0  0  0  0  0  0
    0.6411   -1.1104    0.0000 C   0  0  0  0  0  0  0  0  0  0  0  0
    0.6411   -0.2854    0.0000 N   0  0  0  0  0  0  0  0  0  0  0  0
   -0.1435   -0.0305    0.0000 C   0  0  0  0  0  0  0  0  0  0  0  0
   -0.3984    0.7541    0.0000 O   0  0  0  0  0  0  0  0  0  0  0  0
    1.3556    0.1271    0.0000 C   0  0  0  0  0  0  0  0  0  0  0  0
    2.0701   -0.2854    0.0000 C   0  0  0  0  0  0  0  0  0  0  0  0
    2.0701   -1.1104    0.0000 O   0  0  0  0  0  0  0  0  0  0  0  0
    1.3556   -1.5229    0.0000 C   0  0  0  0  0  0  0  0  0  0  0  0
   -1.8659   -1.4124    0.0000 C   0  0  0  0  0  0  0  0  0  0  0  0
   -2.6909   -1.4124    0.0000 C   0  0  0  0  0  0  0  0  0  0  0  0
   -3.1034   -2.1269    0.0000 O   0  0  0  0  0  0  0  0  0  0  0  0
   -2.6909   -2.8414    0.0000 C   0  0  0  0  0  0  0  0  0  0  0  0
   -1.8659   -2.8414    0.0000 C   0  0  0  0  0  0  0  0  0  0  0  0
   -3.1034   -3.5558    0.0000 C   0  0  0  0  0  0  0  0  0  0  0  0
   -3.8179   -3.1433    0.0000 F   0  0  0  0  0  0  0  0  0  0  0  0
   -2.3890   -3.9683    0.0000 F   0  0  0  0  0  0  0  0  0  0  0  0
   -3.5159   -4.2703    0.0000 F   0  0  0  0  0  0  0  0  0  0  0  0
  1  2  1  0  0  0  0
  2  3  4  0  0  0  0
  3  4  4  0  0  0  0
  4  5  1  0  0  0  0
  4  6  4  0  0  0  0
  6  7  4  0  0  0  0
  7  8  1  0  0  0  0
  7  9  4  0  0  0  0
  2  9  4  0  0  0  0
  9 10  1  0  0  0  0
 10 11  1  0  0  0  0
 11 12  2  0  0  0  0
 11 13  1  0  0  0  0
 13 14  4  0  0  0  0
 14 15  4  0  0  0  0
 15 16  1  0  0  0  0
 15 17  4  0  0  0  0
 17 18  1  0  0  0  0
 18 19  4  0  0  0  0
 19 20  4  0  0  0  0
 20 21  4  0  0  0  0
 21 22  4  0  0  0  0
 18 22  4  0  0  0  0
 22 23  2  0  0  0  0
 21 24  1  0  0  0  0
 24 25  1  0  0  0  0
 25 26  1  0  0  0  0
 26 27  1  0  0  0  0
 20 27  1  0  0  0  0
 17 28  4  0  0  0  0
 28 29  4  0  0  0  0
 13 29  4  0  0  0  0
 29 30  1  0  0  0  0
 30 31  1  0  0  0  0
 31 32  1  0  0  0  0
 31 33  1  0  0  0  0
 33 34  1  0  0  0  0
 33 35  1  0  0  0  0
 33 36  1  0  0  0  0
M  END
> <IC50(uM)>
0.009

> <Outcome>
1.0

> <BindingDB ID>
1020581

> <BindingDB MonomerID>
490520

> <BindingDB Ligand Name>
N-(2-chloro-4-fluoro-6-methylphenyl)-5-fluoro-4-(3-oxo-5,6-dihydro-3H-[1,2,4]triazolo[3,4-c]-[1,4]oxazin-2(8H)-yl)-2-{[(2S)-1,1,1-trifluoropropan-2-yl]oxy}benzamide::US10968216, Example 188

> <Curation/DataSource>
US Patent

> <Article DOI>
?

> <PMID>
?

> <Patent Number>
US10968216

> <Authors>
Gradl, SN; Nguyen, D; Eis, K; Gunther, J; Stellfeld, T; Janzer, A; Christian, S; Mueller, T; Sheikh, SE; Zhou, HJ; Zhao, C; Sykes, DB; Ferrara, SJ; Liu, K; Herbert, SA; Merz, C; Niehues, M; Nising, CF; Schafer, M; Zimmermann, K; Knablein, J; Thede, K; Faupel, T

> <Link to Ligand in BindingDB>
http://www.bindingdb.org/bind/chemsearch/marvin/MolStructure.jsp?monomerid=490520

> <Link to Ligand-Target Pair in BindingDB>
http://www.bindingdb.org/jsp/dbsearch/PrimarySearch_ki.jsp?energyterm=kJ/mole&tag=r21&monomerid=490520&enzyme=Dihydroorotate+dehydrogenase&column=ki&startPg=0&Increment=50&submit=Search

> <PubChem CID>
134474170

> <PubChem SID>
447117246

$$$$

  Mrv2115 07222212352D          

 28 32  0  0  0  0            999 V2000
    3.8131   -5.4042    0.0000 C   0  0  0  0  0  0  0  0  0  0  0  0
    4.3652   -4.7911    0.0000 C   0  0  0  0  0  0  0  0  0  0  0  0
    4.1102   -4.0065    0.0000 C   0  0  0  0  0  0  0  0  0  0  0  0
    4.6623   -3.3934    0.0000 C   0  0  0  0  0  0  0  0  0  0  0  0
    4.4073   -2.6088    0.0000 C   0  0  0  0  0  0  0  0  0  0  0  0
    3.6004   -2.4373    0.0000 C   0  0  0  0  0  0  0  0  0  0  0  0
    3.3454   -1.6527    0.0000 C   0  0  0  0  0  0  0  0  0  0  0  0
    3.8974   -1.0396    0.0000 C   0  0  0  0  0  0  0  0  0  0  0  0
    3.6425   -0.2549    0.0000 N   0  0  0  0  0  0  0  0  0  0  0  0
    4.1274    0.4125    0.0000 N   0  0  0  0  0  0  0  0  0  0  0  0
    3.6425    1.0799    0.0000 N   0  0  0  0  0  0  0  0  0  0  0  0
    2.8579    0.8250    0.0000 C   0  0  0  0  0  0  0  0  0  0  0  0
    2.8579    0.0000    0.0000 C   0  0  0  0  0  0  0  0  0  0  0  0
    2.1434   -0.4125    0.0000 C   0  0  0  0  0  0  0  0  0  0  0  0
    2.1434   -1.2375    0.0000 O   0  0  0  0  0  0  0  0  0  0  0  0
    1.4289   -0.0000    0.0000 C   0  0  0  0  0  0  0  0  0  0  0  0
    0.7145   -0.4125    0.0000 C   0  0  0  0  0  0  0  0  0  0  0  0
   -0.0000    0.0000    0.0000 C   0  0  0  0  0  0  0  0  0  0  0  0
    0.0000    0.8250    0.0000 C   0  0  0  0  0  0  0  0  0  0  0  0
    0.7145    1.2375    0.0000 C   0  0  0  0  0  0  0  0  0  0  0  0
    1.4289    0.8250    0.0000 C   0  0  0  0  0  0  0  0  0  0  0  0
    2.1434    1.2375    0.0000 C   0  0  0  0  0  0  0  0  0  0  0  0
    2.1434    2.0625    0.0000 O   0  0  0  0  0  0  0  0  0  0  0  0
    4.7044   -1.2111    0.0000 C   0  0  0  0  0  0  0  0  0  0  0  0
    4.9594   -1.9957    0.0000 C   0  0  0  0  0  0  0  0  0  0  0  0
    5.4692   -3.5650    0.0000 C   0  0  0  0  0  0  0  0  0  0  0  0
    5.7242   -4.3496    0.0000 C   0  0  0  0  0  0  0  0  0  0  0  0
    5.1721   -4.9627    0.0000 N   0  0  0  0  0  0  0  0  0  0  0  0
  1  2  1  0  0  0  0
  2  3  4  0  0  0  0
  3  4  4  0  0  0  0
  4  5  1  0  0  0  0
  5  6  4  0  0  0  0
  6  7  4  0  0  0  0
  7  8  4  0  0  0  0
  8  9  1  0  0  0  0
  9 10  4  0  0  0  0
 10 11  4  0  0  0  0
 11 12  4  0  0  0  0
 12 13  4  0  0  0  0
  9 13  4  0  0  0  0
 13 14  1  0  0  0  0
 14 15  2  0  0  0  0
 14 16  1  0  0  0  0
 16 17  4  0  0  0  0
 17 18  4  0  0  0  0
 18 19  4  0  0  0  0
 19 20  4  0  0  0  0
 20 21  4  0  0  0  0
 16 21  4  0  0  0  0
 21 22  1  0  0  0  0
 12 22  1  0  0  0  0
 22 23  2  0  0  0  0
  8 24  4  0  0  0  0
 24 25  4  0  0  0  0
  5 25  4  0  0  0  0
  4 26  4  0  0  0  0
 26 27  4  0  0  0  0
 27 28  4  0  0  0  0
  2 28  4  0  0  0  0
M  END
> <IC50(uM)>
1.0

> <Outcome>
1.0

> <BindingDB ID>
51338182

> <BindingDB MonomerID>
50541656

> <BindingDB Ligand Name>
CHEMBL4638274

> <Curation/DataSource>
ChEMBL

> <Article DOI>
10.1021/acs.jmedchem.0c00512

> <PMID>
32496056

> <Patent Number>
?

> <Authors>
Zuo, Z; Liu, X; Qian, X; Zeng, T; Sang, N; Liu, H; Zhou, Y; Tao, L; Zhou, X; Su, N; Yu, Y; Chen, Q; Luo, Y; Zhao, Y

> <Link to Ligand in BindingDB>
http://www.bindingdb.org/bind/chemsearch/marvin/MolStructure.jsp?monomerid=50541656

> <Link to Ligand-Target Pair in BindingDB>
http://www.bindingdb.org/jsp/dbsearch/PrimarySearch_ki.jsp?energyterm=kJ/mole&tag=r21&monomerid=50541656&enzyme=Dihydroorotate+dehydrogenase&column=ki&startPg=0&Increment=50&submit=Search

> <PubChem CID>
156011812

> <PubChem SID>
442143219

$$$$

  Mrv2115 07222212352D          

 33 35  0  0  0  0            999 V2000
    2.1434   -3.7125    0.0000 C   0  0  0  0  0  0  0  0  0  0  0  0
    2.8579   -4.1250    0.0000 C   0  0  0  0  0  0  0  0  0  0  0  0
    3.5724   -3.7125    0.0000 C   0  0  0  0  0  0  0  0  0  0  0  0
    4.2868   -4.1250    0.0000 C   0  0  0  0  0  0  0  0  0  0  0  0
    4.2868   -4.9500    0.0000 C   0  0  0  0  0  0  0  0  0  0  0  0
    5.0013   -3.7125    0.0000 O   0  0  0  0  0  0  0  0  0  0  0  0
    5.0013   -2.8875    0.0000 C   0  0  0  0  0  0  0  0  0  0  0  0
    4.2868   -2.4750    0.0000 C   0  0  0  0  0  0  0  0  0  0  0  0
    4.2868   -1.6500    0.0000 C   0  0  0  0  0  0  0  0  0  0  0  0
    3.5724   -1.2375    0.0000 N   0  0  0  0  0  0  0  0  0  0  0  0
    2.8187   -1.5731    0.0000 N   0  0  0  0  0  0  0  0  0  0  0  0
    2.2666   -0.9600    0.0000 C   0  0  0  0  0  0  0  0  0  0  0  0
    1.4462   -1.0462    0.0000 C   0  0  0  0  0  0  0  0  0  0  0  0
    2.6791   -0.2455    0.0000 N   0  0  0  0  0  0  0  0  0  0  0  0
    2.3436    0.5082    0.0000 C   0  0  0  0  0  0  0  0  0  0  0  0
    1.5231    0.5944    0.0000 C   0  0  0  0  0  0  0  0  0  0  0  0
    2.8285    1.1756    0.0000 C   0  0  0  0  0  0  0  0  0  0  0  0
    3.4861   -0.4170    0.0000 C   0  0  0  0  0  0  0  0  0  0  0  0
    4.0992    0.1350    0.0000 O   0  0  0  0  0  0  0  0  0  0  0  0
    5.0013   -1.2375    0.0000 C   0  0  0  0  0  0  0  0  0  0  0  0
    5.0013   -0.4125    0.0000 F   0  0  0  0  0  0  0  0  0  0  0  0
    5.7158   -1.6500    0.0000 C   0  0  0  0  0  0  0  0  0  0  0  0
    5.7158   -2.4750    0.0000 C   0  0  0  0  0  0  0  0  0  0  0  0
    6.4302   -2.8875    0.0000 C   0  0  0  0  0  0  0  0  0  0  0  0
    6.4302   -3.7125    0.0000 O   0  0  0  0  0  0  0  0  0  0  0  0
    7.1447   -2.4750    0.0000 N   0  0  0  0  0  0  0  0  0  0  0  0
    7.8592   -2.8875    0.0000 C   0  0  0  0  0  0  0  0  0  0  0  0
    8.5737   -2.4750    0.0000 C   0  0  0  0  0  0  0  0  0  0  0  0
    9.2881   -2.8875    0.0000 C   0  0  0  0  0  0  0  0  0  0  0  0
    9.2881   -3.7125    0.0000 C   0  0  0  0  0  0  0  0  0  0  0  0
    8.5737   -4.1250    0.0000 C   0  0  0  0  0  0  0  0  0  0  0  0
    7.8592   -3.7125    0.0000 C   0  0  0  0  0  0  0  0  0  0  0  0
    7.1447   -4.1250    0.0000 F   0  0  0  0  0  0  0  0  0  0  0  0
  1  2  1  0  0  0  0
  2  3  1  0  0  0  0
  3  4  1  0  0  0  0
  4  5  1  0  0  0  0
  4  6  1  0  0  0  0
  6  7  1  0  0  0  0
  7  8  4  0  0  0  0
  8  9  4  0  0  0  0
  9 10  1  0  0  0  0
 10 11  4  0  0  0  0
 11 12  4  0  0  0  0
 12 13  1  0  0  0  0
 12 14  4  0  0  0  0
 14 15  1  0  0  0  0
 15 16  1  0  0  0  0
 15 17  1  0  0  0  0
 14 18  4  0  0  0  0
 10 18  4  0  0  0  0
 18 19  2  0  0  0  0
  9 20  4  0  0  0  0
 20 21  1  0  0  0  0
 20 22  4  0  0  0  0
 22 23  4  0  0  0  0
  7 23  4  0  0  0  0
 23 24  1  0  0  0  0
 24 25  2  0  0  0  0
 24 26  1  0  0  0  0
 26 27  1  0  0  0  0
 27 28  4  0  0  0  0
 28 29  4  0  0  0  0
 29 30  4  0  0  0  0
 30 31  4  0  0  0  0
 31 32  4  0  0  0  0
 27 32  4  0  0  0  0
 32 33  1  0  0  0  0
M  END
> <IC50(uM)>
0.7324999999999999

> <Outcome>
1.0

> <BindingDB ID>
1098614; 972460; 972459; 1098613

> <BindingDB MonomerID>
470354

> <BindingDB Ligand Name>
5-fluoro-N-(2-fluorophenyl)-4-[3-methyl-5-oxo-4-(propan-2-yl)-4,5-dihydro-1H-1,2,4-triazol-1-yl]-2-[(2S)-pentan-2-yloxy]benzamide::US10815215, Example 15::US11130745, Example 15; 5-fluoro-N-(2-fluorophenyl)-4-[3-methyl-5-oxo-4-(propan-2-yl)-4,5-dihydro-1H-1,2,4-triazol-1-yl]-2-[(2S)-pentan-2-yloxy]benzamide::US10815215, Example 15

> <Curation/DataSource>
US Patent

> <Article DOI>
?

> <PMID>
?

> <Patent Number>
US11130745; US10815215

> <Authors>
Gradl, SN; Nguyen, D; Eis, K; Gunther, J; Stellfeld, T; Janzer, A; Christian, S; Muller, T; Sheikh, SE; Sykes, DB; Ferrara, SJ; Krober, M; Merz, C; Niehues, M; Schafer, M; Zimmermann, K; Nising, CF; Gradl, SN; Nguyen, D; Eis, K; Gunther, J; Stellfeld, T; Janzer, A; Christian, S; Muller, T; Sheikh, SE; Zhou, HJ; Zhao, C; Sykes, DB; Ferrara, SJ; Liu, K; Krober, M; Merz, C; Niehues, M; Schafer, M; Zimmermann, K; Nising, CF

> <Link to Ligand in BindingDB>
http://www.bindingdb.org/bind/chemsearch/marvin/MolStructure.jsp?monomerid=470354

> <Link to Ligand-Target Pair in BindingDB>
http://www.bindingdb.org/jsp/dbsearch/PrimarySearch_ki.jsp?energyterm=kJ/mole&tag=r21&monomerid=470354&enzyme=Dihydroorotate+dehydrogenase&column=ki&startPg=0&Increment=50&submit=Search

> <PubChem CID>
134470159

> <PubChem SID>
441609531

$$$$

  Mrv2115 07222212352D          

 25 28  0  0  0  0            999 V2000
    1.8500    2.0625    0.0000 O   0  0  0  0  0  0  0  0  0  0  0  0
    2.5645    2.4750    0.0000 C   0  0  0  0  0  0  0  0  0  0  0  0
    3.2789    2.0625    0.0000 N   0  0  0  0  0  0  0  0  0  0  0  0
    3.2789    1.2375    0.0000 C   0  0  0  0  0  0  0  0  0  0  0  0
    3.9934    0.8250    0.0000 C   0  0  0  0  0  0  0  0  0  0  0  0
    3.9934    0.0000    0.0000 C   0  0  0  0  0  0  0  0  0  0  0  0
    3.2789   -0.4125    0.0000 C   0  0  0  0  0  0  0  0  0  0  0  0
    2.5645    0.0000    0.0000 C   0  0  0  0  0  0  0  0  0  0  0  0
    2.5645    0.8250    0.0000 C   0  0  0  0  0  0  0  0  0  0  0  0
    1.7798    1.0799    0.0000 C   0  0  0  0  0  0  0  0  0  0  0  0
    1.2949    0.4125    0.0000 N   0  0  0  0  0  0  0  0  0  0  0  0
    1.7798   -0.2549    0.0000 N   0  0  0  0  0  0  0  0  0  0  0  0
    1.5249   -1.0396    0.0000 C   0  0  0  0  0  0  0  0  0  0  0  0
    2.0769   -1.6527    0.0000 C   0  0  0  0  0  0  0  0  0  0  0  0
    1.8220   -2.4373    0.0000 C   0  0  0  0  0  0  0  0  0  0  0  0
    1.0150   -2.6088    0.0000 C   0  0  0  0  0  0  0  0  0  0  0  0
    0.4630   -1.9957    0.0000 C   0  0  0  0  0  0  0  0  0  0  0  0
    0.7179   -1.2111    0.0000 C   0  0  0  0  0  0  0  0  0  0  0  0
    0.1659   -0.5980    0.0000 F   0  0  0  0  0  0  0  0  0  0  0  0
    2.5645    3.3000    0.0000 C   0  0  0  0  0  0  0  0  0  0  0  0
    1.8500    3.7125    0.0000 C   0  0  0  0  0  0  0  0  0  0  0  0
    1.8500    4.5375    0.0000 C   0  0  0  0  0  0  0  0  0  0  0  0
    2.5645    4.9500    0.0000 C   0  0  0  0  0  0  0  0  0  0  0  0
    3.2789    4.5375    0.0000 C   0  0  0  0  0  0  0  0  0  0  0  0
    3.2789    3.7125    0.0000 C   0  0  0  0  0  0  0  0  0  0  0  0
  1  2  2  0  0  0  0
  2  3  1  0  0  0  0
  3  4  1  0  0  0  0
  4  5  1  0  0  0  0
  5  6  1  0  0  0  0
  6  7  1  0  0  0  0
  7  8  1  0  0  0  0
  8  9  4  0  0  0  0
  4  9  1  0  0  0  0
  9 10  4  0  0  0  0
 10 11  4  0  0  0  0
 11 12  4  0  0  0  0
  8 12  4  0  0  0  0
 12 13  1  0  0  0  0
 13 14  4  0  0  0  0
 14 15  4  0  0  0  0
 15 16  4  0  0  0  0
 16 17  4  0  0  0  0
 17 18  4  0  0  0  0
 13 18  4  0  0  0  0
 18 19  1  0  0  0  0
  2 20  1  0  0  0  0
 20 21  4  0  0  0  0
 21 22  4  0  0  0  0
 22 23  4  0  0  0  0
 23 24  4  0  0  0  0
 24 25  4  0  0  0  0
 20 25  4  0  0  0  0
M  END
> <IC50(uM)>
7.6

> <Outcome>
0.0

> <BindingDB ID>
51334951

> <BindingDB MonomerID>
50540323

> <BindingDB Ligand Name>
CHEMBL4648021

> <Curation/DataSource>
ChEMBL

> <Article DOI>
10.1021/acs.jmedchem.9b01658

> <PMID>
32212728

> <Patent Number>
?

> <Authors>
Popova, G; Ladds, MJGW; Johansson, L; Saleh, A; Larsson, J; Sandberg, L; Sahlberg, SH; Qian, W; Gullberg, H; Garg, N; Gustavsson, AL; Haraldsson, M; Lane, D; Yngve, U; Lain, S

> <Link to Ligand in BindingDB>
http://www.bindingdb.org/bind/chemsearch/marvin/MolStructure.jsp?monomerid=50540323

> <Link to Ligand-Target Pair in BindingDB>
http://www.bindingdb.org/jsp/dbsearch/PrimarySearch_ki.jsp?energyterm=kJ/mole&tag=r21&monomerid=50540323&enzyme=Dihydroorotate+dehydrogenase&column=ki&startPg=0&Increment=50&submit=Search

> <PubChem CID>
156021404

> <PubChem SID>
442141886

$$$$

  Mrv2115 07222212352D          

 35 37  0  0  0  0            999 V2000
    0.0000   -4.1250    0.0000 C   0  0  0  0  0  0  0  0  0  0  0  0
    0.0000   -4.9500    0.0000 C   0  0  0  0  0  0  0  0  0  0  0  0
   -0.6674   -5.4349    0.0000 N   0  0  0  0  0  0  0  0  0  0  0  0
   -0.4125   -6.2195    0.0000 N   0  0  0  0  0  0  0  0  0  0  0  0
   -0.8974   -6.8870    0.0000 C   0  0  0  0  0  0  0  0  0  0  0  0
   -0.5619   -7.6407    0.0000 C   0  0  0  0  0  0  0  0  0  0  0  0
   -1.0468   -8.3081    0.0000 C   0  0  0  0  0  0  0  0  0  0  0  0
   -0.7112   -9.0618    0.0000 O   0  0  0  0  0  0  0  0  0  0  0  0
    0.1093   -9.1480    0.0000 C   0  0  0  0  0  0  0  0  0  0  0  0
    0.5942   -8.4806    0.0000 C   0  0  0  0  0  0  0  0  0  0  0  0
    0.4448   -9.9017    0.0000 C   0  0  0  0  0  0  0  0  0  0  0  0
   -0.3089  -10.2372    0.0000 F   0  0  0  0  0  0  0  0  0  0  0  0
    1.1985   -9.5661    0.0000 F   0  0  0  0  0  0  0  0  0  0  0  0
    0.7804  -10.6554    0.0000 F   0  0  0  0  0  0  0  0  0  0  0  0
   -1.8673   -8.2219    0.0000 C   0  0  0  0  0  0  0  0  0  0  0  0
   -2.3522   -8.8893    0.0000 C   0  0  0  0  0  0  0  0  0  0  0  0
   -2.0166   -9.6430    0.0000 O   0  0  0  0  0  0  0  0  0  0  0  0
   -3.1727   -8.8031    0.0000 N   0  0  0  0  0  0  0  0  0  0  0  0
   -3.6576   -9.4705    0.0000 C   0  0  0  0  0  0  0  0  0  0  0  0
   -3.3220  -10.2242    0.0000 C   0  0  0  0  0  0  0  0  0  0  0  0
   -2.5016  -10.3104    0.0000 F   0  0  0  0  0  0  0  0  0  0  0  0
   -3.8070  -10.8916    0.0000 C   0  0  0  0  0  0  0  0  0  0  0  0
   -4.6274  -10.8054    0.0000 C   0  0  0  0  0  0  0  0  0  0  0  0
   -4.9630  -10.0517    0.0000 C   0  0  0  0  0  0  0  0  0  0  0  0
   -4.4781   -9.3843    0.0000 C   0  0  0  0  0  0  0  0  0  0  0  0
   -4.8136   -8.6306    0.0000 F   0  0  0  0  0  0  0  0  0  0  0  0
   -2.2028   -7.4682    0.0000 C   0  0  0  0  0  0  0  0  0  0  0  0
   -1.7179   -6.8007    0.0000 C   0  0  0  0  0  0  0  0  0  0  0  0
   -2.0535   -6.0471    0.0000 F   0  0  0  0  0  0  0  0  0  0  0  0
    0.4125   -6.2195    0.0000 C   0  0  0  0  0  0  0  0  0  0  0  0
    0.8974   -6.8870    0.0000 O   0  0  0  0  0  0  0  0  0  0  0  0
    0.6674   -5.4349    0.0000 N   0  0  0  0  0  0  0  0  0  0  0  0
    1.4521   -5.1800    0.0000 C   0  0  0  0  0  0  0  0  0  0  0  0
    1.6236   -4.3730    0.0000 C   0  0  0  0  0  0  0  0  0  0  0  0
    2.0652   -5.7320    0.0000 C   0  0  0  0  0  0  0  0  0  0  0  0
  1  2  1  0  0  0  0
  2  3  4  0  0  0  0
  3  4  4  0  0  0  0
  4  5  1  0  0  0  0
  5  6  4  0  0  0  0
  6  7  4  0  0  0  0
  7  8  1  0  0  0  0
  8  9  1  0  0  0  0
  9 10  1  0  0  0  0
  9 11  1  0  0  0  0
 11 12  1  0  0  0  0
 11 13  1  0  0  0  0
 11 14  1  0  0  0  0
  7 15  4  0  0  0  0
 15 16  1  0  0  0  0
 16 17  2  0  0  0  0
 16 18  1  0  0  0  0
 18 19  1  0  0  0  0
 19 20  4  0  0  0  0
 20 21  1  0  0  0  0
 20 22  4  0  0  0  0
 22 23  4  0  0  0  0
 23 24  4  0  0  0  0
 24 25  4  0  0  0  0
 19 25  4  0  0  0  0
 25 26  1  0  0  0  0
 15 27  4  0  0  0  0
 27 28  4  0  0  0  0
  5 28  4  0  0  0  0
 28 29  1  0  0  0  0
  4 30  4  0  0  0  0
 30 31  2  0  0  0  0
 30 32  4  0  0  0  0
  2 32  4  0  0  0  0
 32 33  1  0  0  0  0
 33 34  1  0  0  0  0
 33 35  1  0  0  0  0
M  END
> <IC50(uM)>
0.028499999999999994

> <Outcome>
1.0

> <BindingDB ID>
1098587; 972433; 1098588; 972434

> <BindingDB MonomerID>
470340

> <BindingDB Ligand Name>
N-(2,6-difluorophenyl)-5-fluoro-4-[3-methyl-5-oxo-4-(propan-2-yl)-4,5-dihydro-1H-1,2,4-triazol-1-yl]-2-{[(2S)-1,1,1-trifluoropropan-2-yl]oxy}benzamide::US10815215, Example 2::US11130745, Example 2; N-(2,6-difluorophenyl)-5-fluoro-4-[3-methyl-5-oxo-4-(propan-2-yl)-4,5-dihydro-1H-1,2,4-triazol-1-yl]-2-{[(2S)-1,1,1-trifluoropropan-2-yl]oxy}benzamide::US10815215, Example 2

> <Curation/DataSource>
US Patent

> <Article DOI>
?

> <PMID>
?

> <Patent Number>
US11130745; US10815215

> <Authors>
Gradl, SN; Nguyen, D; Eis, K; Gunther, J; Stellfeld, T; Janzer, A; Christian, S; Muller, T; Sheikh, SE; Sykes, DB; Ferrara, SJ; Krober, M; Merz, C; Niehues, M; Schafer, M; Zimmermann, K; Nising, CF; Gradl, SN; Nguyen, D; Eis, K; Gunther, J; Stellfeld, T; Janzer, A; Christian, S; Muller, T; Sheikh, SE; Zhou, HJ; Zhao, C; Sykes, DB; Ferrara, SJ; Liu, K; Krober, M; Merz, C; Niehues, M; Schafer, M; Zimmermann, K; Nising, CF

> <Link to Ligand in BindingDB>
http://www.bindingdb.org/bind/chemsearch/marvin/MolStructure.jsp?monomerid=470340

> <Link to Ligand-Target Pair in BindingDB>
http://www.bindingdb.org/jsp/dbsearch/PrimarySearch_ki.jsp?energyterm=kJ/mole&tag=r21&monomerid=470340&enzyme=Dihydroorotate+dehydrogenase&column=ki&startPg=0&Increment=50&submit=Search

> <PubChem CID>
134470336

> <PubChem SID>
441609517

$$$$

  Mrv2115 07222212352D          

 24 26  0  0  0  0            999 V2000
    1.8409   -1.9019    0.0000 C   0  0  0  0  0  0  0  0  0  0  0  0
    2.6256   -1.6470    0.0000 C   0  0  0  0  0  0  0  0  0  0  0  0
    2.8805   -0.8624    0.0000 C   0  0  0  0  0  0  0  0  0  0  0  0
    2.3956   -0.1949    0.0000 C   0  0  0  0  0  0  0  0  0  0  0  0
    2.7311    0.5587    0.0000 C   0  0  0  0  0  0  0  0  0  0  0  0
    2.2462    1.2262    0.0000 C   0  0  0  0  0  0  0  0  0  0  0  0
    2.5818    1.9799    0.0000 C   0  0  0  0  0  0  0  0  0  0  0  0
    3.4023    2.0661    0.0000 C   0  0  0  0  0  0  0  0  0  0  0  0
    3.7378    2.8198    0.0000 C   0  0  0  0  0  0  0  0  0  0  0  0
    4.0734    3.5734    0.0000 F   0  0  0  0  0  0  0  0  0  0  0  0
    2.9841    3.1553    0.0000 F   0  0  0  0  0  0  0  0  0  0  0  0
    4.4915    2.4842    0.0000 F   0  0  0  0  0  0  0  0  0  0  0  0
    3.8872    1.3987    0.0000 C   0  0  0  0  0  0  0  0  0  0  0  0
    3.5516    0.6450    0.0000 C   0  0  0  0  0  0  0  0  0  0  0  0
    4.0365   -0.0225    0.0000 F   0  0  0  0  0  0  0  0  0  0  0  0
    3.7055   -0.8624    0.0000 C   0  0  0  0  0  0  0  0  0  0  0  0
    3.9604   -1.6470    0.0000 N   0  0  0  0  0  0  0  0  0  0  0  0
    3.2930   -2.1319    0.0000 C   0  0  0  0  0  0  0  0  0  0  0  0
    3.2930   -2.9569    0.0000 C   0  0  0  0  0  0  0  0  0  0  0  0
    2.5785   -3.3694    0.0000 O   0  0  0  0  0  0  0  0  0  0  0  0
    4.0075   -3.3694    0.0000 N   0  0  0  0  0  0  0  0  0  0  0  0
    4.0075   -4.1944    0.0000 C   0  0  0  0  0  0  0  0  0  0  0  0
    4.4200   -4.9089    0.0000 C   0  0  0  0  0  0  0  0  0  0  0  0
    3.5950   -4.9089    0.0000 C   0  0  0  0  0  0  0  0  0  0  0  0
  1  2  1  0  0  0  0
  2  3  4  0  0  0  0
  3  4  1  0  0  0  0
  4  5  1  0  0  0  0
  5  6  4  0  0  0  0
  6  7  4  0  0  0  0
  7  8  4  0  0  0  0
  8  9  1  0  0  0  0
  9 10  1  0  0  0  0
  9 11  1  0  0  0  0
  9 12  1  0  0  0  0
  8 13  4  0  0  0  0
 13 14  4  0  0  0  0
  5 14  4  0  0  0  0
 14 15  1  0  0  0  0
  3 16  4  0  0  0  0
 16 17  4  0  0  0  0
 17 18  4  0  0  0  0
  2 18  4  0  0  0  0
 18 19  1  0  0  0  0
 19 20  2  0  0  0  0
 19 21  1  0  0  0  0
 21 22  1  0  0  0  0
 22 23  1  0  0  0  0
 23 24  1  0  0  0  0
 22 24  1  0  0  0  0
M  STY  1   1 DAT
M  SAL   1  1  17
M  SDT   1 MRV_IMPLICIT_H                                        
M  SDD   1     0.5304   -0.4125    DR    ALL  0       0  
M  SED   1 IMPL_H1
M  END
> <IC50(uM)>
100.0

> <Outcome>
0.0

> <BindingDB ID>
51330111

> <BindingDB MonomerID>
50538359

> <BindingDB Ligand Name>
CHEMBL4635646

> <Curation/DataSource>
ChEMBL

> <Article DOI>
10.1021/acs.jmedchem.0c00311

> <PMID>
32248693

> <Patent Number>
?

> <Authors>
Kokkonda, S; Deng, X; White, KL; El Mazouni, F; White, J; Shackleford, DM; Katneni, K; Chiu, FCK; Barker, H; McLaren, J; Crighton, E; Chen, G; Angulo-Barturen, I; Jimenez-Diaz, MB; Ferrer, S; Huertas-Valentin, L; Martinez-Martinez, MS; Lafuente-Monasterio, MJ; Chittimalla, R; Shahi, SP; Wittlin, S; Waterson, D; Burrows, JN; Matthews, D; Tomchick, D; Rathod, PK; Palmer, MJ; Charman, SA; Phillips, MA

> <Link to Ligand in BindingDB>
http://www.bindingdb.org/bind/chemsearch/marvin/MolStructure.jsp?monomerid=50538359

> <Link to Ligand-Target Pair in BindingDB>
http://www.bindingdb.org/jsp/dbsearch/PrimarySearch_ki.jsp?energyterm=kJ/mole&tag=r21&monomerid=50538359&enzyme=Dihydroorotate+dehydrogenase&column=ki&startPg=0&Increment=50&submit=Search

> <PubChem CID>
146020610

> <PubChem SID>
442139922

$$$$

  Mrv2115 07222212352D          

 21 24  0  0  0  0            999 V2000
   -0.7878   -1.1104    0.0000 C   0  0  0  0  0  0  0  0  0  0  0  0
   -1.5023   -1.5229    0.0000 C   0  0  0  0  0  0  0  0  0  0  0  0
   -1.5023   -2.3479    0.0000 C   0  0  0  0  0  0  0  0  0  0  0  0
   -2.2168   -2.7604    0.0000 C   0  0  0  0  0  0  0  0  0  0  0  0
   -2.2168   -3.5854    0.0000 N   0  0  0  0  0  0  0  0  0  0  0  0
   -1.5023   -3.9979    0.0000 C   0  0  0  0  0  0  0  0  0  0  0  0
   -1.5023   -4.8229    0.0000 C   0  0  0  0  0  0  0  0  0  0  0  0
   -0.7878   -5.2354    0.0000 C   0  0  0  0  0  0  0  0  0  0  0  0
   -0.0734   -4.8229    0.0000 C   0  0  0  0  0  0  0  0  0  0  0  0
   -0.0734   -3.9979    0.0000 C   0  0  0  0  0  0  0  0  0  0  0  0
   -0.7878   -3.5854    0.0000 C   0  0  0  0  0  0  0  0  0  0  0  0
    0.6411   -3.5854    0.0000 C   0  0  0  0  0  0  0  0  0  0  0  0
    1.3556   -3.9979    0.0000 C   0  0  0  0  0  0  0  0  0  0  0  0
    1.3556   -4.8229    0.0000 C   0  0  0  0  0  0  0  0  0  0  0  0
    0.6411   -5.2354    0.0000 C   0  0  0  0  0  0  0  0  0  0  0  0
   -2.9312   -2.3479    0.0000 N   0  0  0  0  0  0  0  0  0  0  0  0
   -3.7159   -2.6029    0.0000 N   0  0  0  0  0  0  0  0  0  0  0  0
   -4.2008   -1.9354    0.0000 C   0  0  0  0  0  0  0  0  0  0  0  0
   -3.7159   -1.2680    0.0000 N   0  0  0  0  0  0  0  0  0  0  0  0
   -2.9312   -1.5229    0.0000 C   0  0  0  0  0  0  0  0  0  0  0  0
   -2.2168   -1.1104    0.0000 N   0  0  0  0  0  0  0  0  0  0  0  0
  1  2  1  0  0  0  0
  2  3  4  0  0  0  0
  3  4  4  0  0  0  0
  4  5  1  0  0  0  0
  5  6  1  0  0  0  0
  6  7  4  0  0  0  0
  7  8  4  0  0  0  0
  8  9  4  0  0  0  0
  9 10  4  0  0  0  0
 10 11  4  0  0  0  0
  6 11  4  0  0  0  0
 10 12  1  0  0  0  0
 12 13  1  0  0  0  0
 13 14  1  0  0  0  0
 14 15  1  0  0  0  0
  9 15  1  0  0  0  0
  4 16  4  0  0  0  0
 16 17  4  0  0  0  0
 17 18  4  0  0  0  0
 18 19  4  0  0  0  0
 19 20  4  0  0  0  0
 16 20  4  0  0  0  0
 20 21  4  0  0  0  0
  2 21  4  0  0  0  0
M  END
> <IC50(uM)>
100.0

> <Outcome>
0.0

> <BindingDB ID>
50643207

> <BindingDB MonomerID>
50345441

> <BindingDB Ligand Name>
5-Methyl-N-(5,6,7,8-tetrahydronaphthalen-2yl)-[1,2,4]triazolo-[1,5-a]pyrimidin-7-amine::CHEMBL1784578::US9238653, Table 5, Compound 38

> <Curation/DataSource>
ChEMBL

> <Article DOI>
10.1021/jm200265b

> <PMID>
21517059

> <Patent Number>
?

> <Authors>
Gujjar, R; El Mazouni, F; White, KL; White, J; Creason, S; Shackleford, DM; Deng, X; Charman, WN; Bathurst, I; Burrows, J; Floyd, DM; Matthews, D; Buckner, FS; Charman, SA; Phillips, MA; Rathod, PK

> <Link to Ligand in BindingDB>
http://www.bindingdb.org/bind/chemsearch/marvin/MolStructure.jsp?monomerid=50345441

> <Link to Ligand-Target Pair in BindingDB>
http://www.bindingdb.org/jsp/dbsearch/PrimarySearch_ki.jsp?energyterm=kJ/mole&tag=r21&monomerid=50345441&enzyme=Dihydroorotate+dehydrogenase&column=ki&startPg=0&Increment=50&submit=Search

> <PubChem CID>
44133952

> <PubChem SID>
131348377

$$$$

  Mrv2115 07222212352D          

 22 24  0  0  0  0            999 V2000
    1.4491   -2.1291    0.0000 C   0  0  0  0  0  0  0  0  0  0  0  0
    1.6206   -1.3221    0.0000 C   0  0  0  0  0  0  0  0  0  0  0  0
    2.4052   -1.0672    0.0000 O   0  0  0  0  0  0  0  0  0  0  0  0
    2.5768   -0.2602    0.0000 C   0  0  0  0  0  0  0  0  0  0  0  0
    1.9637    0.2918    0.0000 O   0  0  0  0  0  0  0  0  0  0  0  0
    3.3614   -0.0053    0.0000 C   0  0  0  0  0  0  0  0  0  0  0  0
    3.6163    0.7793    0.0000 S   0  0  0  0  0  0  0  0  0  0  0  0
    4.4413    0.7793    0.0000 C   0  0  0  0  0  0  0  0  0  0  0  0
    4.9263    1.4468    0.0000 N   0  0  0  0  0  0  0  0  0  0  0  0
    5.7467    1.3605    0.0000 C   0  0  0  0  0  0  0  0  0  0  0  0
    6.2317    2.0280    0.0000 C   0  0  0  0  0  0  0  0  0  0  0  0
    7.0521    1.9418    0.0000 C   0  0  0  0  0  0  0  0  0  0  0  0
    7.3877    1.1881    0.0000 C   0  0  0  0  0  0  0  0  0  0  0  0
    8.2082    1.1018    0.0000 C   0  0  0  0  0  0  0  0  0  0  0  0
    6.9028    0.5206    0.0000 C   0  0  0  0  0  0  0  0  0  0  0  0
    7.2383   -0.2330    0.0000 F   0  0  0  0  0  0  0  0  0  0  0  0
    6.0823    0.6069    0.0000 C   0  0  0  0  0  0  0  0  0  0  0  0
    4.6963   -0.0053    0.0000 N   0  0  0  0  0  0  0  0  0  0  0  0
    4.0288   -0.4902    0.0000 C   0  0  0  0  0  0  0  0  0  0  0  0
    4.0288   -1.3152    0.0000 C   0  0  0  0  0  0  0  0  0  0  0  0
    4.4413   -2.0297    0.0000 C   0  0  0  0  0  0  0  0  0  0  0  0
    3.6163   -2.0297    0.0000 C   0  0  0  0  0  0  0  0  0  0  0  0
  1  2  1  0  0  0  0
  2  3  1  0  0  0  0
  3  4  1  0  0  0  0
  4  5  2  0  0  0  0
  4  6  1  0  0  0  0
  6  7  4  0  0  0  0
  7  8  4  0  0  0  0
  8  9  1  0  0  0  0
  9 10  1  0  0  0  0
 10 11  4  0  0  0  0
 11 12  4  0  0  0  0
 12 13  4  0  0  0  0
 13 14  1  0  0  0  0
 13 15  4  0  0  0  0
 15 16  1  0  0  0  0
 15 17  4  0  0  0  0
 10 17  4  0  0  0  0
  8 18  4  0  0  0  0
 18 19  4  0  0  0  0
  6 19  4  0  0  0  0
 19 20  1  0  0  0  0
 20 21  1  0  0  0  0
 21 22  1  0  0  0  0
 20 22  1  0  0  0  0
M  END
> <IC50(uM)>
0.645

> <Outcome>
1.0

> <BindingDB ID>
50312276

> <BindingDB MonomerID>
50071629

> <BindingDB Ligand Name>
CHEMBL3410589

> <Curation/DataSource>
ChEMBL

> <Article DOI>
10.1021/jm501127s

> <PMID>
25580811

> <Patent Number>
?

> <Authors>
Zhu, J; Han, L; Diao, Y; Ren, X; Xu, M; Xu, L; Li, S; Li, Q; Dong, D; Huang, J; Liu, X; Zhao, Z; Wang, R; Zhu, L; Xu, Y; Qian, X; Li, H

> <Link to Ligand in BindingDB>
http://www.bindingdb.org/bind/chemsearch/marvin/MolStructure.jsp?monomerid=50071629

> <Link to Ligand-Target Pair in BindingDB>
http://www.bindingdb.org/jsp/dbsearch/PrimarySearch_ki.jsp?energyterm=kJ/mole&tag=r21&monomerid=50071629&enzyme=Dihydroorotate+dehydrogenase&column=ki&startPg=0&Increment=50&submit=Search

> <PubChem CID>
118732505

> <PubChem SID>
313072561

$$$$

  Mrv2115 07222212352D          

 27 29  0  0  0  0            999 V2000
    1.4289    0.8250    0.0000 C   0  0  0  0  0  0  0  0  0  0  0  0
    1.4289   -0.0000    0.0000 C   0  0  0  0  0  0  0  0  0  0  0  0
    2.1434   -0.4125    0.0000 C   0  0  0  0  0  0  0  0  0  0  0  0
    0.7145   -0.4125    0.0000 N   0  0  0  0  0  0  0  0  0  0  0  0
    0.0000    0.0000    0.0000 N   0  0  0  0  0  0  0  0  0  0  0  0
   -0.7145   -0.4125    0.0000 C   0  0  0  0  0  0  0  0  0  0  0  0
   -1.4289    0.0000    0.0000 C   0  0  0  0  0  0  0  0  0  0  0  0
   -2.1434   -0.4125    0.0000 C   0  0  0  0  0  0  0  0  0  0  0  0
   -2.8579    0.0000    0.0000 C   0  0  0  0  0  0  0  0  0  0  0  0
   -2.8579    0.8250    0.0000 C   0  0  0  0  0  0  0  0  0  0  0  0
   -2.1434    1.2375    0.0000 C   0  0  0  0  0  0  0  0  0  0  0  0
   -1.4289    0.8250    0.0000 C   0  0  0  0  0  0  0  0  0  0  0  0
   -0.7145    1.2375    0.0000 C   0  0  0  0  0  0  0  0  0  0  0  0
    0.0000    0.8250    0.0000 O   0  0  0  0  0  0  0  0  0  0  0  0
   -0.7145    2.0625    0.0000 O   0  0  0  0  0  0  0  0  0  0  0  0
    0.7145   -1.2375    0.0000 C   0  0  0  0  0  0  0  0  0  0  0  0
    1.3819   -1.7224    0.0000 N   0  0  0  0  0  0  0  0  0  0  0  0
    1.1270   -2.5070    0.0000 C   0  0  0  0  0  0  0  0  0  0  0  0
    1.6119   -3.1745    0.0000 C   0  0  0  0  0  0  0  0  0  0  0  0
    2.4324   -3.0882    0.0000 C   0  0  0  0  0  0  0  0  0  0  0  0
    2.9173   -3.7557    0.0000 C   0  0  0  0  0  0  0  0  0  0  0  0
    2.5817   -4.5094    0.0000 C   0  0  0  0  0  0  0  0  0  0  0  0
    1.7613   -4.5956    0.0000 C   0  0  0  0  0  0  0  0  0  0  0  0
    1.2763   -3.9282    0.0000 C   0  0  0  0  0  0  0  0  0  0  0  0
    0.4559   -4.0144    0.0000 Cl  0  0  0  0  0  0  0  0  0  0  0  0
    0.3020   -2.5070    0.0000 C   0  0  0  0  0  0  0  0  0  0  0  0
    0.0470   -1.7224    0.0000 S   0  0  0  0  0  0  0  0  0  0  0  0
  1  2  1  0  0  0  0
  2  3  1  0  0  0  0
  2  4  1  0  0  0  0
  4  5  1  0  0  0  0
  5  6  2  0  0  0  0
  6  7  1  0  0  0  0
  7  8  4  0  0  0  0
  8  9  4  0  0  0  0
  9 10  4  0  0  0  0
 10 11  4  0  0  0  0
 11 12  4  0  0  0  0
  7 12  4  0  0  0  0
 12 13  1  0  0  0  0
 13 14  2  0  0  0  0
 13 15  1  0  0  0  0
  4 16  1  0  0  0  0
 16 17  4  0  0  0  0
 17 18  4  0  0  0  0
 18 19  1  0  0  0  0
 19 20  4  0  0  0  0
 20 21  4  0  0  0  0
 21 22  4  0  0  0  0
 22 23  4  0  0  0  0
 23 24  4  0  0  0  0
 19 24  4  0  0  0  0
 24 25  1  0  0  0  0
 18 26  4  0  0  0  0
 26 27  4  0  0  0  0
 16 27  4  0  0  0  0
M  END
> <IC50(uM)>
0.09309999999999999

> <Outcome>
1.0

> <BindingDB ID>
1001113

> <BindingDB MonomerID>
482799

> <BindingDB Ligand Name>
US10919869, No.  4

> <Curation/DataSource>
US Patent

> <Article DOI>
?

> <PMID>
?

> <Patent Number>
US10919869

> <Authors>
Li, H; Xu, Y; Wang, R; Zhao, Z; Song, W; Xu, L

> <Link to Ligand in BindingDB>
http://www.bindingdb.org/bind/chemsearch/marvin/MolStructure.jsp?monomerid=482799

> <Link to Ligand-Target Pair in BindingDB>
http://www.bindingdb.org/jsp/dbsearch/PrimarySearch_ki.jsp?energyterm=kJ/mole&tag=r21&monomerid=482799&enzyme=Dihydroorotate+dehydrogenase&column=ki&startPg=0&Increment=50&submit=Search

> <PubChem CID>
132157962

> <PubChem SID>
443551940

$$$$

  Mrv2115 07222212352D          

 25 27  0  0  0  0            999 V2000
    0.7145   -0.4125    0.0000 C   0  0  0  0  0  0  0  0  0  0  0  0
    0.7145   -1.2375    0.0000 C   0  0  0  0  0  0  0  0  0  0  0  0
    1.3819   -1.7224    0.0000 S   0  0  0  0  0  0  0  0  0  0  0  0
    1.1270   -2.5070    0.0000 C   0  0  0  0  0  0  0  0  0  0  0  0
    1.6119   -3.1745    0.0000 N   0  0  0  0  0  0  0  0  0  0  0  0
    2.4324   -3.0882    0.0000 N   0  0  0  0  0  0  0  0  0  0  0  0
    2.7679   -2.3346    0.0000 C   0  0  0  0  0  0  0  0  0  0  0  0
    3.5884   -2.2483    0.0000 C   0  0  0  0  0  0  0  0  0  0  0  0
    3.9240   -1.4947    0.0000 C   0  0  0  0  0  0  0  0  0  0  0  0
    4.7445   -1.4084    0.0000 C   0  0  0  0  0  0  0  0  0  0  0  0
    5.2294   -2.0759    0.0000 C   0  0  0  0  0  0  0  0  0  0  0  0
    4.8938   -2.8295    0.0000 C   0  0  0  0  0  0  0  0  0  0  0  0
    4.0733   -2.9158    0.0000 C   0  0  0  0  0  0  0  0  0  0  0  0
    3.7378   -3.6695    0.0000 C   0  0  0  0  0  0  0  0  0  0  0  0
    2.9173   -3.7557    0.0000 O   0  0  0  0  0  0  0  0  0  0  0  0
    4.2227   -4.3369    0.0000 O   0  0  0  0  0  0  0  0  0  0  0  0
    0.3020   -2.5070    0.0000 N   0  0  0  0  0  0  0  0  0  0  0  0
    0.0470   -1.7224    0.0000 C   0  0  0  0  0  0  0  0  0  0  0  0
   -0.7376   -1.4675    0.0000 C   0  0  0  0  0  0  0  0  0  0  0  0
   -1.3507   -2.0195    0.0000 C   0  0  0  0  0  0  0  0  0  0  0  0
   -2.1353   -1.7646    0.0000 C   0  0  0  0  0  0  0  0  0  0  0  0
   -2.3068   -0.9576    0.0000 C   0  0  0  0  0  0  0  0  0  0  0  0
   -1.6937   -0.4056    0.0000 C   0  0  0  0  0  0  0  0  0  0  0  0
   -0.9091   -0.6605    0.0000 C   0  0  0  0  0  0  0  0  0  0  0  0
   -0.2960   -0.1085    0.0000 Cl  0  0  0  0  0  0  0  0  0  0  0  0
  1  2  1  0  0  0  0
  2  3  4  0  0  0  0
  3  4  4  0  0  0  0
  4  5  1  0  0  0  0
  5  6  1  0  0  0  0
  6  7  2  0  0  0  0
  7  8  1  0  0  0  0
  8  9  4  0  0  0  0
  9 10  4  0  0  0  0
 10 11  4  0  0  0  0
 11 12  4  0  0  0  0
 12 13  4  0  0  0  0
  8 13  4  0  0  0  0
 13 14  1  0  0  0  0
 14 15  2  0  0  0  0
 14 16  1  0  0  0  0
  4 17  4  0  0  0  0
 17 18  4  0  0  0  0
  2 18  4  0  0  0  0
 18 19  1  0  0  0  0
 19 20  4  0  0  0  0
 20 21  4  0  0  0  0
 21 22  4  0  0  0  0
 22 23  4  0  0  0  0
 23 24  4  0  0  0  0
 19 24  4  0  0  0  0
 24 25  1  0  0  0  0
M  END
> <IC50(uM)>
0.06620000000000001

> <Outcome>
1.0

> <BindingDB ID>
1001124

> <BindingDB MonomerID>
482810

> <BindingDB Ligand Name>
US10919869, No.  15

> <Curation/DataSource>
US Patent

> <Article DOI>
?

> <PMID>
?

> <Patent Number>
US10919869

> <Authors>
Li, H; Xu, Y; Wang, R; Zhao, Z; Song, W; Xu, L

> <Link to Ligand in BindingDB>
http://www.bindingdb.org/bind/chemsearch/marvin/MolStructure.jsp?monomerid=482810

> <Link to Ligand-Target Pair in BindingDB>
http://www.bindingdb.org/jsp/dbsearch/PrimarySearch_ki.jsp?energyterm=kJ/mole&tag=r21&monomerid=482810&enzyme=Dihydroorotate+dehydrogenase&column=ki&startPg=0&Increment=50&submit=Search

> <PubChem CID>
132157952

> <PubChem SID>
443551951

$$$$

  Mrv2115 07222212352D          

 22 23  0  0  0  0            999 V2000
    0.0000   -0.8250    0.0000 N   0  0  0  0  0  0  0  0  0  0  0  0
    0.7145   -1.2375    0.0000 C   0  0  0  0  0  0  0  0  0  0  0  0
    1.4289   -1.6500    0.0000 C   0  0  0  0  0  0  0  0  0  0  0  0
    1.4289   -2.4750    0.0000 C   0  0  0  0  0  0  0  0  0  0  0  0
    2.1434   -2.8875    0.0000 C   0  0  0  0  0  0  0  0  0  0  0  0
    2.1434   -3.7125    0.0000 C   0  0  0  0  0  0  0  0  0  0  0  0
    1.4289   -4.1250    0.0000 C   0  0  0  0  0  0  0  0  0  0  0  0
    1.4289   -4.9500    0.0000 C   0  0  0  0  0  0  0  0  0  0  0  0
    2.1434   -5.3625    0.0000 C   0  0  0  0  0  0  0  0  0  0  0  0
    2.1434   -6.1875    0.0000 C   0  0  0  0  0  0  0  0  0  0  0  0
    2.8579   -6.6000    0.0000 C   0  0  0  0  0  0  0  0  0  0  0  0
    3.5724   -6.1875    0.0000 C   0  0  0  0  0  0  0  0  0  0  0  0
    4.2868   -6.6000    0.0000 O   0  0  0  0  0  0  0  0  0  0  0  0
    3.5724   -5.3625    0.0000 O   0  0  0  0  0  0  0  0  0  0  0  0
    2.8579   -7.4250    0.0000 N   0  0  0  0  0  0  0  0  0  0  0  0
    2.1434   -7.8375    0.0000 C   0  0  0  0  0  0  0  0  0  0  0  0
    2.1434   -8.6625    0.0000 O   0  0  0  0  0  0  0  0  0  0  0  0
    1.4289   -7.4250    0.0000 N   0  0  0  0  0  0  0  0  0  0  0  0
    1.4289   -6.6000    0.0000 C   0  0  0  0  0  0  0  0  0  0  0  0
    0.7145   -6.1875    0.0000 O   0  0  0  0  0  0  0  0  0  0  0  0
    0.7145   -3.7125    0.0000 C   0  0  0  0  0  0  0  0  0  0  0  0
    0.7145   -2.8875    0.0000 C   0  0  0  0  0  0  0  0  0  0  0  0
  1  2  3  0  0  0  0
  2  3  1  0  0  0  0
  3  4  1  0  0  0  0
  4  5  4  0  0  0  0
  5  6  4  0  0  0  0
  6  7  4  0  0  0  0
  7  8  1  0  0  0  0
  8  9  1  0  0  0  0
  9 10  1  0  0  0  0
 10 11  4  0  0  0  0
 11 12  1  0  0  0  0
 12 13  2  0  0  0  0
 12 14  1  0  0  0  0
 11 15  4  0  0  0  0
 15 16  4  0  0  0  0
 16 17  2  0  0  0  0
 16 18  4  0  0  0  0
 18 19  4  0  0  0  0
 10 19  4  0  0  0  0
 19 20  2  0  0  0  0
  7 21  4  0  0  0  0
 21 22  4  0  0  0  0
  4 22  4  0  0  0  0
M  STY  2   1 DAT   2 DAT
M  SAL   1  1  15
M  SDT   1 MRV_IMPLICIT_H                                        
M  SDD   1     0.5304   -0.4125    DR    ALL  0       0  
M  SED   1 IMPL_H1
M  SAL   2  1  18
M  SDT   2 MRV_IMPLICIT_H                                        
M  SDD   2     0.5304   -0.4125    DR    ALL  0       0  
M  SED   2 IMPL_H1
M  END
> <IC50(uM)>
5.0

> <Outcome>
0.0

> <BindingDB ID>
50555214

> <BindingDB MonomerID>
50211690

> <BindingDB Ligand Name>
CHEMBL3915927

> <Curation/DataSource>
ChEMBL

> <Article DOI>
10.1016/j.bmc.2017.01.009

> <PMID>
28118956

> <Patent Number>
?

> <Authors>
Inaoka, DK; Iida, M; Hashimoto, S; Tabuchi, T; Kuranaga, T; Balogun, EO; Honma, T; Tanaka, A; Harada, S; Nara, T; Kita, K; Inoue, M

> <Link to Ligand in BindingDB>
http://www.bindingdb.org/bind/chemsearch/marvin/MolStructure.jsp?monomerid=50211690

> <Link to Ligand-Target Pair in BindingDB>
http://www.bindingdb.org/jsp/dbsearch/PrimarySearch_ki.jsp?energyterm=kJ/mole&tag=r21&monomerid=50211690&enzyme=Dihydroorotate+dehydrogenase&column=ki&startPg=0&Increment=50&submit=Search

> <PubChem CID>
134142784

> <PubChem SID>
375983033

$$$$

  Mrv2115 07222212352D          

 24 27  0  0  0  0            999 V2000
    3.9934    2.4750    0.0000 O   0  0  0  0  0  0  0  0  0  0  0  0
    3.2789    2.0625    0.0000 C   0  0  0  0  0  0  0  0  0  0  0  0
    2.5645    2.4750    0.0000 O   0  0  0  0  0  0  0  0  0  0  0  0
    3.2789    1.2375    0.0000 C   0  0  0  0  0  0  0  0  0  0  0  0
    3.9934    0.8250    0.0000 C   0  0  0  0  0  0  0  0  0  0  0  0
    3.9934    0.0000    0.0000 C   0  0  0  0  0  0  0  0  0  0  0  0
    3.2789   -0.4125    0.0000 C   0  0  0  0  0  0  0  0  0  0  0  0
    2.5645    0.0000    0.0000 C   0  0  0  0  0  0  0  0  0  0  0  0
    1.7798   -0.2549    0.0000 N   0  0  0  0  0  0  0  0  0  0  0  0
    1.2949    0.4125    0.0000 C   0  0  0  0  0  0  0  0  0  0  0  0
    0.4699    0.4125    0.0000 C   0  0  0  0  0  0  0  0  0  0  0  0
    0.0574   -0.3020    0.0000 C   0  0  0  0  0  0  0  0  0  0  0  0
   -0.7676   -0.3020    0.0000 C   0  0  0  0  0  0  0  0  0  0  0  0
   -1.1801    0.4125    0.0000 C   0  0  0  0  0  0  0  0  0  0  0  0
   -2.0051    0.4125    0.0000 C   0  0  0  0  0  0  0  0  0  0  0  0
   -2.4176   -0.3020    0.0000 C   0  0  0  0  0  0  0  0  0  0  0  0
   -3.2426   -0.3020    0.0000 C   0  0  0  0  0  0  0  0  0  0  0  0
   -3.6551    0.4125    0.0000 C   0  0  0  0  0  0  0  0  0  0  0  0
   -3.2426    1.1270    0.0000 C   0  0  0  0  0  0  0  0  0  0  0  0
   -2.4176    1.1270    0.0000 C   0  0  0  0  0  0  0  0  0  0  0  0
   -0.7676    1.1270    0.0000 C   0  0  0  0  0  0  0  0  0  0  0  0
    0.0574    1.1270    0.0000 C   0  0  0  0  0  0  0  0  0  0  0  0
    1.7798    1.0799    0.0000 O   0  0  0  0  0  0  0  0  0  0  0  0
    2.5645    0.8250    0.0000 C   0  0  0  0  0  0  0  0  0  0  0  0
  1  2  2  0  0  0  0
  2  3  1  0  0  0  0
  2  4  1  0  0  0  0
  4  5  4  0  0  0  0
  5  6  4  0  0  0  0
  6  7  4  0  0  0  0
  7  8  4  0  0  0  0
  8  9  4  0  0  0  0
  9 10  4  0  0  0  0
 10 11  1  0  0  0  0
 11 12  4  0  0  0  0
 12 13  4  0  0  0  0
 13 14  4  0  0  0  0
 14 15  1  0  0  0  0
 15 16  4  0  0  0  0
 16 17  4  0  0  0  0
 17 18  4  0  0  0  0
 18 19  4  0  0  0  0
 19 20  4  0  0  0  0
 15 20  4  0  0  0  0
 14 21  4  0  0  0  0
 21 22  4  0  0  0  0
 11 22  4  0  0  0  0
 10 23  4  0  0  0  0
 23 24  4  0  0  0  0
  4 24  4  0  0  0  0
  8 24  4  0  0  0  0
M  END
> <IC50(uM)>
3.03

> <Outcome>
0.0

> <BindingDB ID>
297753

> <BindingDB MonomerID>
155409

> <BindingDB Ligand Name>
US9006454, I19

> <Curation/DataSource>
US Patent

> <Article DOI>
?

> <PMID>
?

> <Patent Number>
US9006454

> <Authors>
Thunuguntla, SS; Subramanya, H; Kunnam, SR; Sanivaru Vijay, SR; Bingi, C; Kusanur, R; Schwarz, M; Arlt, M

> <Link to Ligand in BindingDB>
http://www.bindingdb.org/bind/chemsearch/marvin/MolStructure.jsp?monomerid=155409

> <Link to Ligand-Target Pair in BindingDB>
http://www.bindingdb.org/jsp/dbsearch/PrimarySearch_ki.jsp?energyterm=kJ/mole&tag=r21&monomerid=155409&enzyme=Dihydroorotate+dehydrogenase&column=ki&startPg=0&Increment=50&submit=Search

> <PubChem CID>
59828583

> <PubChem SID>
253658346

$$$$

  Mrv2115 07222212352D          

 32 36  0  0  0  0            999 V2000
    0.8838   -2.1500    0.0000 C   0  0  0  0  0  0  0  0  0  0  0  0
    1.1387   -1.3654    0.0000 N   0  0  0  0  0  0  0  0  0  0  0  0
    0.6538   -0.6979    0.0000 N   0  0  0  0  0  0  0  0  0  0  0  0
    1.1387   -0.0305    0.0000 N   0  0  0  0  0  0  0  0  0  0  0  0
    1.9233   -0.2854    0.0000 C   0  0  0  0  0  0  0  0  0  0  0  0
    2.6378    0.1271    0.0000 C   0  0  0  0  0  0  0  0  0  0  0  0
    3.3523   -0.2854    0.0000 C   0  0  0  0  0  0  0  0  0  0  0  0
    4.0668    0.1271    0.0000 C   0  0  0  0  0  0  0  0  0  0  0  0
    4.0668    0.9521    0.0000 C   0  0  0  0  0  0  0  0  0  0  0  0
    4.7812    1.3646    0.0000 C   0  0  0  0  0  0  0  0  0  0  0  0
    5.4957    0.9521    0.0000 C   0  0  0  0  0  0  0  0  0  0  0  0
    6.2102    1.3646    0.0000 C   0  0  0  0  0  0  0  0  0  0  0  0
    6.2102    2.1896    0.0000 C   0  0  0  0  0  0  0  0  0  0  0  0
    6.9246    2.6021    0.0000 C   0  0  0  0  0  0  0  0  0  0  0  0
    7.6391    2.1896    0.0000 C   0  0  0  0  0  0  0  0  0  0  0  0
    8.3536    2.6021    0.0000 C   0  0  0  0  0  0  0  0  0  0  0  0
    9.0681    2.1896    0.0000 N   0  0  0  0  0  0  0  0  0  0  0  0
    9.7825    2.6021    0.0000 C   0  0  0  0  0  0  0  0  0  0  0  0
   10.4970    2.1896    0.0000 C   0  0  0  0  0  0  0  0  0  0  0  0
   10.4970    1.3646    0.0000 O   0  0  0  0  0  0  0  0  0  0  0  0
    9.7825    0.9521    0.0000 C   0  0  0  0  0  0  0  0  0  0  0  0
    9.0681    1.3646    0.0000 C   0  0  0  0  0  0  0  0  0  0  0  0
    7.6391    1.3646    0.0000 C   0  0  0  0  0  0  0  0  0  0  0  0
    6.9246    0.9521    0.0000 C   0  0  0  0  0  0  0  0  0  0  0  0
    5.4957    0.1271    0.0000 C   0  0  0  0  0  0  0  0  0  0  0  0
    4.7812   -0.2854    0.0000 C   0  0  0  0  0  0  0  0  0  0  0  0
    3.3523   -1.1104    0.0000 C   0  0  0  0  0  0  0  0  0  0  0  0
    2.6378   -1.5229    0.0000 C   0  0  0  0  0  0  0  0  0  0  0  0
    2.6378   -2.3479    0.0000 C   0  0  0  0  0  0  0  0  0  0  0  0
    1.9233   -2.7604    0.0000 O   0  0  0  0  0  0  0  0  0  0  0  0
    3.3523   -2.7604    0.0000 O   0  0  0  0  0  0  0  0  0  0  0  0
    1.9233   -1.1104    0.0000 C   0  0  0  0  0  0  0  0  0  0  0  0
  1  2  1  0  0  0  0
  2  3  4  0  0  0  0
  3  4  4  0  0  0  0
  4  5  4  0  0  0  0
  5  6  4  0  0  0  0
  6  7  4  0  0  0  0
  7  8  1  0  0  0  0
  8  9  4  0  0  0  0
  9 10  4  0  0  0  0
 10 11  4  0  0  0  0
 11 12  1  0  0  0  0
 12 13  4  0  0  0  0
 13 14  4  0  0  0  0
 14 15  4  0  0  0  0
 15 16  1  0  0  0  0
 16 17  1  0  0  0  0
 17 18  1  0  0  0  0
 18 19  1  0  0  0  0
 19 20  1  0  0  0  0
 20 21  1  0  0  0  0
 21 22  1  0  0  0  0
 17 22  1  0  0  0  0
 15 23  4  0  0  0  0
 23 24  4  0  0  0  0
 12 24  4  0  0  0  0
 11 25  4  0  0  0  0
 25 26  4  0  0  0  0
  8 26  4  0  0  0  0
  7 27  4  0  0  0  0
 27 28  4  0  0  0  0
 28 29  1  0  0  0  0
 29 30  2  0  0  0  0
 29 31  1  0  0  0  0
 28 32  4  0  0  0  0
  5 32  4  0  0  0  0
  2 32  4  0  0  0  0
M  END
> <IC50(uM)>
1.0

> <Outcome>
1.0

> <BindingDB ID>
1100183

> <BindingDB MonomerID>
520642

> <BindingDB Ligand Name>
1-methyl-5-(4'-(morpholinomethyl)-[1,1'-biphenyl]-4-yl)-1H-benzo[d][1,2,3]triazole- 7-carboxylic acid;::US11147801, Compound 31

> <Curation/DataSource>
US Patent

> <Article DOI>
?

> <PMID>
?

> <Patent Number>
US11147801

> <Authors>
Nellore, K; Hosahalli, S

> <Link to Ligand in BindingDB>
http://www.bindingdb.org/bind/chemsearch/marvin/MolStructure.jsp?monomerid=520642

> <Link to Ligand-Target Pair in BindingDB>
http://www.bindingdb.org/jsp/dbsearch/PrimarySearch_ki.jsp?energyterm=kJ/mole&tag=r21&monomerid=520642&enzyme=Dihydroorotate+dehydrogenase&column=ki&startPg=0&Increment=50&submit=Search

> <PubChem CID>
?

> <PubChem SID>
?

$$$$

  Mrv2115 07222212352D          

 29 32  0  0  0  0            999 V2000
   -0.1712   -0.6979    0.0000 C   0  0  0  0  0  0  0  0  0  0  0  0
    0.6538   -0.6979    0.0000 C   0  0  0  0  0  0  0  0  0  0  0  0
    1.1387   -0.0305    0.0000 N   0  0  0  0  0  0  0  0  0  0  0  0
    1.9233   -0.2854    0.0000 C   0  0  0  0  0  0  0  0  0  0  0  0
    2.6378    0.1271    0.0000 C   0  0  0  0  0  0  0  0  0  0  0  0
    2.6378    0.9521    0.0000 C   0  0  0  0  0  0  0  0  0  0  0  0
    3.3523    1.3646    0.0000 O   0  0  0  0  0  0  0  0  0  0  0  0
    1.9233    1.3646    0.0000 O   0  0  0  0  0  0  0  0  0  0  0  0
    3.3523   -0.2854    0.0000 C   0  0  0  0  0  0  0  0  0  0  0  0
    3.3523   -1.1104    0.0000 C   0  0  0  0  0  0  0  0  0  0  0  0
    4.0668   -1.5229    0.0000 C   0  0  0  0  0  0  0  0  0  0  0  0
    4.7812   -1.1104    0.0000 C   0  0  0  0  0  0  0  0  0  0  0  0
    4.7812   -0.2854    0.0000 F   0  0  0  0  0  0  0  0  0  0  0  0
    5.4957   -1.5229    0.0000 C   0  0  0  0  0  0  0  0  0  0  0  0
    6.2102   -1.1104    0.0000 F   0  0  0  0  0  0  0  0  0  0  0  0
    5.4957   -2.3479    0.0000 C   0  0  0  0  0  0  0  0  0  0  0  0
    6.2102   -2.7604    0.0000 C   0  0  0  0  0  0  0  0  0  0  0  0
    6.9246   -2.3479    0.0000 C   0  0  0  0  0  0  0  0  0  0  0  0
    7.6391   -2.7604    0.0000 C   0  0  0  0  0  0  0  0  0  0  0  0
    7.6391   -3.5854    0.0000 C   0  0  0  0  0  0  0  0  0  0  0  0
    6.9246   -3.9979    0.0000 C   0  0  0  0  0  0  0  0  0  0  0  0
    6.2102   -3.5854    0.0000 C   0  0  0  0  0  0  0  0  0  0  0  0
    4.7812   -2.7604    0.0000 C   0  0  0  0  0  0  0  0  0  0  0  0
    4.7812   -3.5854    0.0000 F   0  0  0  0  0  0  0  0  0  0  0  0
    4.0668   -2.3479    0.0000 C   0  0  0  0  0  0  0  0  0  0  0  0
    3.3523   -2.7604    0.0000 F   0  0  0  0  0  0  0  0  0  0  0  0
    2.6378   -1.5229    0.0000 C   0  0  0  0  0  0  0  0  0  0  0  0
    1.9233   -1.1104    0.0000 C   0  0  0  0  0  0  0  0  0  0  0  0
    1.1387   -1.3654    0.0000 N   0  0  0  0  0  0  0  0  0  0  0  0
  1  2  1  0  0  0  0
  2  3  4  0  0  0  0
  3  4  4  0  0  0  0
  4  5  4  0  0  0  0
  5  6  1  0  0  0  0
  6  7  2  0  0  0  0
  6  8  1  0  0  0  0
  5  9  4  0  0  0  0
  9 10  4  0  0  0  0
 10 11  1  0  0  0  0
 11 12  4  0  0  0  0
 12 13  1  0  0  0  0
 12 14  4  0  0  0  0
 14 15  1  0  0  0  0
 14 16  4  0  0  0  0
 16 17  1  0  0  0  0
 17 18  4  0  0  0  0
 18 19  4  0  0  0  0
 19 20  4  0  0  0  0
 20 21  4  0  0  0  0
 21 22  4  0  0  0  0
 17 22  4  0  0  0  0
 16 23  4  0  0  0  0
 23 24  1  0  0  0  0
 23 25  4  0  0  0  0
 11 25  4  0  0  0  0
 25 26  1  0  0  0  0
 10 27  4  0  0  0  0
 27 28  4  0  0  0  0
  4 28  4  0  0  0  0
 28 29  4  0  0  0  0
  2 29  4  0  0  0  0
M  STY  1   1 DAT
M  SAL   1  1  29
M  SDT   1 MRV_IMPLICIT_H                                        
M  SDD   1     0.5304   -0.4125    DR    ALL  0       0  
M  SED   1 IMPL_H1
M  END
> <IC50(uM)>
0.0028000000000000004

> <Outcome>
1.0

> <BindingDB ID>
51390143; 1045599

> <BindingDB MonomerID>
501657

> <BindingDB Ligand Name>
US11028054, Example 52

> <Curation/DataSource>
ChEMBL; US Patent

> <Article DOI>
?

> <PMID>
33214811; ?

> <Patent Number>
?; US11028054

> <Authors>
Abdel-Magid, AF; Thunuguntla, SS; Hosahalli, S; Panigrahi, SK; Schwarz, M; Arit, M

> <Link to Ligand in BindingDB>
http://www.bindingdb.org/bind/chemsearch/marvin/MolStructure.jsp?monomerid=501657

> <Link to Ligand-Target Pair in BindingDB>
http://www.bindingdb.org/jsp/dbsearch/PrimarySearch_ki.jsp?energyterm=kJ/mole&tag=r21&monomerid=501657&enzyme=Dihydroorotate+dehydrogenase&column=ki&startPg=0&Increment=50&submit=Search

> <PubChem CID>
135313448; ?

> <PubChem SID>
459086989; ?

$$$$

  Mrv2115 07222212352D          

 32 34  0  0  0  0            999 V2000
   -3.4782    6.7819    0.0000 C   0  0  0  0  0  0  0  0  0  0  0  0
   -2.6577    6.6957    0.0000 C   0  0  0  0  0  0  0  0  0  0  0  0
   -2.3221    5.9420    0.0000 C   0  0  0  0  0  0  0  0  0  0  0  0
   -1.5152    5.7705    0.0000 N   0  0  0  0  0  0  0  0  0  0  0  0
   -1.4289    4.9500    0.0000 N   0  0  0  0  0  0  0  0  0  0  0  0
   -0.7145    4.5375    0.0000 C   0  0  0  0  0  0  0  0  0  0  0  0
    0.0000    4.9500    0.0000 C   0  0  0  0  0  0  0  0  0  0  0  0
    0.7145    4.5375    0.0000 C   0  0  0  0  0  0  0  0  0  0  0  0
    1.4289    4.9500    0.0000 O   0  0  0  0  0  0  0  0  0  0  0  0
    1.4289    5.7750    0.0000 C   0  0  0  0  0  0  0  0  0  0  0  0
    0.7145    6.1875    0.0000 C   0  0  0  0  0  0  0  0  0  0  0  0
    2.1434    6.1875    0.0000 C   0  0  0  0  0  0  0  0  0  0  0  0
    2.2296    7.0080    0.0000 C   0  0  0  0  0  0  0  0  0  0  0  0
    3.0366    7.1795    0.0000 C   0  0  0  0  0  0  0  0  0  0  0  0
    3.4491    6.4650    0.0000 C   0  0  0  0  0  0  0  0  0  0  0  0
    2.8971    5.8519    0.0000 C   0  0  0  0  0  0  0  0  0  0  0  0
    0.7145    3.7125    0.0000 C   0  0  0  0  0  0  0  0  0  0  0  0
    1.4289    3.3000    0.0000 C   0  0  0  0  0  0  0  0  0  0  0  0
    2.1434    3.7125    0.0000 O   0  0  0  0  0  0  0  0  0  0  0  0
    1.4289    2.4750    0.0000 N   0  0  0  0  0  0  0  0  0  0  0  0
    2.1434    2.0625    0.0000 C   0  0  0  0  0  0  0  0  0  0  0  0
    2.1434    1.2375    0.0000 C   0  0  0  0  0  0  0  0  0  0  0  0
    2.8579    0.8250    0.0000 C   0  0  0  0  0  0  0  0  0  0  0  0
    2.8579    2.4750    0.0000 C   0  0  0  0  0  0  0  0  0  0  0  0
    3.5724    2.0625    0.0000 C   0  0  0  0  0  0  0  0  0  0  0  0
    0.0000    3.3000    0.0000 C   0  0  0  0  0  0  0  0  0  0  0  0
   -0.7145    3.7125    0.0000 C   0  0  0  0  0  0  0  0  0  0  0  0
   -1.4289    3.3000    0.0000 F   0  0  0  0  0  0  0  0  0  0  0  0
   -2.1826    4.6144    0.0000 C   0  0  0  0  0  0  0  0  0  0  0  0
   -2.3541    3.8075    0.0000 O   0  0  0  0  0  0  0  0  0  0  0  0
   -2.7346    5.2275    0.0000 N   0  0  0  0  0  0  0  0  0  0  0  0
   -3.5551    5.1413    0.0000 C   0  0  0  0  0  0  0  0  0  0  0  0
  1  2  1  0  0  0  0
  2  3  1  0  0  0  0
  3  4  4  0  0  0  0
  4  5  4  0  0  0  0
  5  6  1  0  0  0  0
  6  7  4  0  0  0  0
  7  8  4  0  0  0  0
  8  9  1  0  0  0  0
  9 10  1  0  0  0  0
 10 11  1  0  0  0  0
 10 12  1  0  0  0  0
 12 13  1  0  0  0  0
 13 14  1  0  0  0  0
 14 15  1  0  0  0  0
 15 16  1  0  0  0  0
 12 16  1  0  0  0  0
  8 17  4  0  0  0  0
 17 18  1  0  0  0  0
 18 19  2  0  0  0  0
 18 20  1  0  0  0  0
 20 21  1  0  0  0  0
 21 22  1  0  0  0  0
 22 23  1  0  0  0  0
 21 24  1  0  0  0  0
 24 25  1  0  0  0  0
 17 26  4  0  0  0  0
 26 27  4  0  0  0  0
  6 27  4  0  0  0  0
 27 28  1  0  0  0  0
  5 29  4  0  0  0  0
 29 30  2  0  0  0  0
 29 31  4  0  0  0  0
  3 31  4  0  0  0  0
 31 32  1  0  0  0  0
M  END
> <IC50(uM)>
0.09290000000000001

> <Outcome>
1.0

> <BindingDB ID>
972626; 1098780

> <BindingDB MonomerID>
470509

> <BindingDB Ligand Name>
2-(1-cyclopentylethoxy)-4-(3-ethyl-4-methyl-5-oxo-4,5-dihydro-1H-1,2,4-triazol-1-yl)-5-fluoro-N-(pentan-3-yl)benzamide, Mixture of Stereoisomers::US10815215, Example 167; 2-(1-cyclopentylethoxy)-4-(3-ethyl-4-methyl-5-oxo-4,5-dihydro-1H-1,2,4-triazol-1-yl)-5-fluoro-N-(pentan-3-yl)benzamide, Mixture of Stereoisomers::US10815215, Example 167::US11130745, Example 167

> <Curation/DataSource>
US Patent

> <Article DOI>
?

> <PMID>
?

> <Patent Number>
US10815215; US11130745

> <Authors>
Gradl, SN; Nguyen, D; Eis, K; Gunther, J; Stellfeld, T; Janzer, A; Christian, S; Muller, T; Sheikh, SE; Zhou, HJ; Zhao, C; Sykes, DB; Ferrara, SJ; Liu, K; Krober, M; Merz, C; Niehues, M; Schafer, M; Zimmermann, K; Nising, CF; Gradl, SN; Nguyen, D; Eis, K; Gunther, J; Stellfeld, T; Janzer, A; Christian, S; Muller, T; Sheikh, SE; Sykes, DB; Ferrara, SJ; Krober, M; Merz, C; Niehues, M; Schafer, M; Zimmermann, K; Nising, CF

> <Link to Ligand in BindingDB>
http://www.bindingdb.org/bind/chemsearch/marvin/MolStructure.jsp?monomerid=470509

> <Link to Ligand-Target Pair in BindingDB>
http://www.bindingdb.org/jsp/dbsearch/PrimarySearch_ki.jsp?energyterm=kJ/mole&tag=r21&monomerid=470509&enzyme=Dihydroorotate+dehydrogenase&column=ki&startPg=0&Increment=50&submit=Search

> <PubChem CID>
134469895

> <PubChem SID>
441609686

$$$$

  Mrv2115 07222212352D          

 27 30  0  0  0  0            999 V2000
   -0.7376    6.5451    0.0000 C   0  0  0  0  0  0  0  0  0  0  0  0
    0.0470    6.8001    0.0000 C   0  0  0  0  0  0  0  0  0  0  0  0
    0.3020    7.5847    0.0000 C   0  0  0  0  0  0  0  0  0  0  0  0
   -0.1830    8.2521    0.0000 C   0  0  0  0  0  0  0  0  0  0  0  0
   -1.0034    8.1659    0.0000 C   0  0  0  0  0  0  0  0  0  0  0  0
   -1.3390    7.4122    0.0000 C   0  0  0  0  0  0  0  0  0  0  0  0
   -2.1595    7.3260    0.0000 C   0  0  0  0  0  0  0  0  0  0  0  0
   -2.6444    7.9934    0.0000 C   0  0  0  0  0  0  0  0  0  0  0  0
   -2.3088    8.7471    0.0000 C   0  0  0  0  0  0  0  0  0  0  0  0
   -1.4884    8.8333    0.0000 C   0  0  0  0  0  0  0  0  0  0  0  0
   -1.1528    9.5870    0.0000 F   0  0  0  0  0  0  0  0  0  0  0  0
    1.1270    7.5847    0.0000 C   0  0  0  0  0  0  0  0  0  0  0  0
    1.6119    8.2521    0.0000 O   0  0  0  0  0  0  0  0  0  0  0  0
    1.2763    9.0058    0.0000 C   0  0  0  0  0  0  0  0  0  0  0  0
    0.4559    9.0920    0.0000 C   0  0  0  0  0  0  0  0  0  0  0  0
    1.7613    9.6732    0.0000 C   0  0  0  0  0  0  0  0  0  0  0  0
    1.3819    6.8001    0.0000 N   0  0  0  0  0  0  0  0  0  0  0  0
    0.7145    6.3151    0.0000 N   0  0  0  0  0  0  0  0  0  0  0  0
    0.7145    5.4901    0.0000 C   0  0  0  0  0  0  0  0  0  0  0  0
    1.4289    5.0776    0.0000 N   0  0  0  0  0  0  0  0  0  0  0  0
    1.4289    4.2526    0.0000 C   0  0  0  0  0  0  0  0  0  0  0  0
    0.7145    3.8401    0.0000 C   0  0  0  0  0  0  0  0  0  0  0  0
    0.7145    3.0151    0.0000 C   0  0  0  0  0  0  0  0  0  0  0  0
    1.1270    2.3007    0.0000 C   0  0  0  0  0  0  0  0  0  0  0  0
    0.3020    2.3007    0.0000 C   0  0  0  0  0  0  0  0  0  0  0  0
    0.0000    4.2526    0.0000 C   0  0  0  0  0  0  0  0  0  0  0  0
    0.0000    5.0776    0.0000 N   0  0  0  0  0  0  0  0  0  0  0  0
  1  2  1  0  0  0  0
  2  3  4  0  0  0  0
  3  4  1  0  0  0  0
  4  5  1  0  0  0  0
  5  6  4  0  0  0  0
  6  7  4  0  0  0  0
  7  8  4  0  0  0  0
  8  9  4  0  0  0  0
  9 10  4  0  0  0  0
  5 10  4  0  0  0  0
 10 11  1  0  0  0  0
  3 12  4  0  0  0  0
 12 13  1  0  0  0  0
 13 14  1  0  0  0  0
 14 15  1  0  0  0  0
 14 16  1  0  0  0  0
 12 17  4  0  0  0  0
 17 18  4  0  0  0  0
  2 18  4  0  0  0  0
 18 19  1  0  0  0  0
 19 20  4  0  0  0  0
 20 21  4  0  0  0  0
 21 22  4  0  0  0  0
 22 23  1  0  0  0  0
 23 24  1  0  0  0  0
 24 25  1  0  0  0  0
 23 25  1  0  0  0  0
 22 26  4  0  0  0  0
 26 27  4  0  0  0  0
 19 27  4  0  0  0  0
M  END
> <IC50(uM)>
0.013

> <Outcome>
1.0

> <BindingDB ID>
50311217

> <BindingDB MonomerID>
50070905

> <BindingDB Ligand Name>
CHEMBL3409286

> <Curation/DataSource>
ChEMBL

> <Article DOI>
10.1021/jm501446r

> <PMID>
25558988

> <Patent Number>
?

> <Authors>
Munier-Lehmann, H; Lucas-Hourani, M; Guillou, S; Helynck, O; Zanghi, G; Noel, A; Tangy, F; Vidalain, PO; Janin, YL

> <Link to Ligand in BindingDB>
http://www.bindingdb.org/bind/chemsearch/marvin/MolStructure.jsp?monomerid=50070905

> <Link to Ligand-Target Pair in BindingDB>
http://www.bindingdb.org/jsp/dbsearch/PrimarySearch_ki.jsp?energyterm=kJ/mole&tag=r21&monomerid=50070905&enzyme=Dihydroorotate+dehydrogenase&column=ki&startPg=0&Increment=50&submit=Search

> <PubChem CID>
118430504

> <PubChem SID>
103964732

$$$$

  Mrv2115 07222212352D          

 22 23  0  0  0  0            999 V2000
    2.4454   -5.8855    0.0000 C   0  0  0  0  0  0  0  0  0  0  0  0
    2.8579   -6.6000    0.0000 C   0  0  0  0  0  0  0  0  0  0  0  0
    3.6829   -6.6000    0.0000 O   0  0  0  0  0  0  0  0  0  0  0  0
    4.0954   -7.3145    0.0000 C   0  0  0  0  0  0  0  0  0  0  0  0
    3.6829   -8.0289    0.0000 O   0  0  0  0  0  0  0  0  0  0  0  0
    4.9204   -7.3145    0.0000 C   0  0  0  0  0  0  0  0  0  0  0  0
    5.3329   -6.6000    0.0000 C   0  0  0  0  0  0  0  0  0  0  0  0
    5.7454   -5.8855    0.0000 N   0  0  0  0  0  0  0  0  0  0  0  0
    5.3329   -8.0289    0.0000 C   0  0  0  0  0  0  0  0  0  0  0  0
    6.1579   -8.0289    0.0000 N   0  0  0  0  0  0  0  0  0  0  0  0
    6.5704   -8.7434    0.0000 C   0  0  0  0  0  0  0  0  0  0  0  0
    7.3954   -8.7434    0.0000 C   0  0  0  0  0  0  0  0  0  0  0  0
    7.8079   -9.4579    0.0000 C   0  0  0  0  0  0  0  0  0  0  0  0
    7.3954  -10.1724    0.0000 C   0  0  0  0  0  0  0  0  0  0  0  0
    7.8079  -10.8868    0.0000 C   0  0  0  0  0  0  0  0  0  0  0  0
    8.6329  -10.8868    0.0000 C   0  0  0  0  0  0  0  0  0  0  0  0
    9.0454  -11.6013    0.0000 C   0  0  0  0  0  0  0  0  0  0  0  0
    8.6329  -12.3158    0.0000 C   0  0  0  0  0  0  0  0  0  0  0  0
    7.8079  -12.3158    0.0000 C   0  0  0  0  0  0  0  0  0  0  0  0
    7.3954  -11.6013    0.0000 C   0  0  0  0  0  0  0  0  0  0  0  0
    6.5704  -10.1724    0.0000 C   0  0  0  0  0  0  0  0  0  0  0  0
    6.1579   -9.4579    0.0000 C   0  0  0  0  0  0  0  0  0  0  0  0
  1  2  1  0  0  0  0
  2  3  1  0  0  0  0
  3  4  1  0  0  0  0
  4  5  2  0  0  0  0
  4  6  1  0  0  0  0
  6  7  1  0  0  0  0
  7  8  3  0  0  0  0
  9  6  1  4  0  0  0
  9 10  2  0  0  0  0
 10 11  1  0  0  0  0
 11 12  4  0  0  0  0
 12 13  4  0  0  0  0
 13 14  4  0  0  0  0
 14 15  1  0  0  0  0
 15 16  4  0  0  0  0
 16 17  4  0  0  0  0
 17 18  4  0  0  0  0
 18 19  4  0  0  0  0
 19 20  4  0  0  0  0
 15 20  4  0  0  0  0
 14 21  4  0  0  0  0
 21 22  4  0  0  0  0
 11 22  4  0  0  0  0
M  END
> <IC50(uM)>
500.0

> <Outcome>
0.0

> <BindingDB ID>
26834

> <BindingDB MonomerID>
14706

> <BindingDB Ligand Name>
Ethyl 3-(biphenyl-4-ylamino)-2-cyanoacrylate::biphenyl compound 11::ethyl (2Z)-2-cyano-3-[(4-phenylphenyl)amino]prop-2-enoate

> <Curation/DataSource>
Curated from the literature by BindingDB

> <Article DOI>
10.1021/jm060687j

> <PMID>
17228860

> <Patent Number>
?

> <Authors>
Heikkila, T; Ramsey, C; Davies, M; Galtier, C; Stead, AM; Johnson, AP; Fishwick, CW; Boa, AN; McConkey, GA

> <Link to Ligand in BindingDB>
http://www.bindingdb.org/bind/chemsearch/marvin/MolStructure.jsp?monomerid=14706

> <Link to Ligand-Target Pair in BindingDB>
http://www.bindingdb.org/jsp/dbsearch/PrimarySearch_ki.jsp?energyterm=kJ/mole&tag=r21&monomerid=14706&enzyme=Dihydroorotate+dehydrogenase&column=ki&startPg=0&Increment=50&submit=Search

> <PubChem CID>
91895905

> <PubChem SID>
46515036

$$$$

  Mrv2115 07222212352D          

 26 28  0  0  0  0            999 V2000
    4.0668    2.3479    0.0000 C   0  0  0  0  0  0  0  0  0  0  0  0
    3.3523    1.9354    0.0000 C   0  0  0  0  0  0  0  0  0  0  0  0
    3.3523    1.1104    0.0000 C   0  0  0  0  0  0  0  0  0  0  0  0
    2.6378    0.6979    0.0000 C   0  0  0  0  0  0  0  0  0  0  0  0
    2.6378   -0.1271    0.0000 N   0  0  0  0  0  0  0  0  0  0  0  0
    3.3523   -0.5396    0.0000 C   0  0  0  0  0  0  0  0  0  0  0  0
    4.0668   -0.1271    0.0000 C   0  0  0  0  0  0  0  0  0  0  0  0
    4.7812   -0.5396    0.0000 C   0  0  0  0  0  0  0  0  0  0  0  0
    4.7812   -1.3646    0.0000 C   0  0  0  0  0  0  0  0  0  0  0  0
    5.4957   -1.7771    0.0000 C   0  0  0  0  0  0  0  0  0  0  0  0
    6.2102   -2.1896    0.0000 F   0  0  0  0  0  0  0  0  0  0  0  0
    5.9082   -1.0626    0.0000 F   0  0  0  0  0  0  0  0  0  0  0  0
    5.0832   -2.4915    0.0000 F   0  0  0  0  0  0  0  0  0  0  0  0
    4.0668   -1.7771    0.0000 C   0  0  0  0  0  0  0  0  0  0  0  0
    4.0668   -2.6021    0.0000 F   0  0  0  0  0  0  0  0  0  0  0  0
    3.3523   -1.3646    0.0000 C   0  0  0  0  0  0  0  0  0  0  0  0
    1.9233    1.1104    0.0000 N   0  0  0  0  0  0  0  0  0  0  0  0
    1.1387    0.8555    0.0000 N   0  0  0  0  0  0  0  0  0  0  0  0
    0.6538    1.5229    0.0000 C   0  0  0  0  0  0  0  0  0  0  0  0
   -0.1712    1.5229    0.0000 C   0  0  0  0  0  0  0  0  0  0  0  0
   -0.9962    1.5229    0.0000 C   0  0  0  0  0  0  0  0  0  0  0  0
   -0.1712    2.3479    0.0000 F   0  0  0  0  0  0  0  0  0  0  0  0
   -0.1712    0.6979    0.0000 F   0  0  0  0  0  0  0  0  0  0  0  0
    1.1387    2.1904    0.0000 N   0  0  0  0  0  0  0  0  0  0  0  0
    1.9233    1.9354    0.0000 C   0  0  0  0  0  0  0  0  0  0  0  0
    2.6378    2.3479    0.0000 N   0  0  0  0  0  0  0  0  0  0  0  0
  1  2  1  0  0  0  0
  2  3  4  0  0  0  0
  3  4  4  0  0  0  0
  4  5  1  0  0  0  0
  5  6  1  0  0  0  0
  6  7  4  0  0  0  0
  7  8  4  0  0  0  0
  8  9  4  0  0  0  0
  9 10  1  0  0  0  0
 10 11  1  0  0  0  0
 10 12  1  0  0  0  0
 10 13  1  0  0  0  0
  9 14  4  0  0  0  0
 14 15  1  0  0  0  0
 14 16  4  0  0  0  0
  6 16  4  0  0  0  0
  4 17  4  0  0  0  0
 17 18  4  0  0  0  0
 18 19  4  0  0  0  0
 19 20  1  0  0  0  0
 20 21  1  0  0  0  0
 20 22  1  0  0  0  0
 20 23  1  0  0  0  0
 19 24  4  0  0  0  0
 24 25  4  0  0  0  0
 17 25  4  0  0  0  0
 25 26  4  0  0  0  0
  2 26  4  0  0  0  0
M  END
> <IC50(uM)>
31.0

> <Outcome>
0.0

> <BindingDB ID>
50102023; 50102126

> <BindingDB MonomerID>
50018007

> <BindingDB Ligand Name>
CHEMBL3289670::US9238653, Table 5, Compound 42

> <Curation/DataSource>
ChEMBL

> <Article DOI>
10.1021/jm500481t

> <PMID>
24801997

> <Patent Number>
?

> <Authors>
Deng, X; Kokkonda, S; El Mazouni, F; White, J; Burrows, JN; Kaminsky, W; Charman, SA; Matthews, D; Rathod, PK; Phillips, MA

> <Link to Ligand in BindingDB>
http://www.bindingdb.org/bind/chemsearch/marvin/MolStructure.jsp?monomerid=50018007

> <Link to Ligand-Target Pair in BindingDB>
http://www.bindingdb.org/jsp/dbsearch/PrimarySearch_ki.jsp?energyterm=kJ/mole&tag=r21&monomerid=50018007&enzyme=Dihydroorotate+dehydrogenase&column=ki&startPg=0&Increment=50&submit=Search

> <PubChem CID>
51347544

> <PubChem SID>
103929183

$$$$

  Mrv2115 07222212352D          

 18 19  0  0  0  0            999 V2000
    2.0367   -0.4741    0.0000 C   0  0  0  0  0  0  0  0  0  0  0  0
    2.0367   -1.2991    0.0000 C   0  0  0  0  0  0  0  0  0  0  0  0
    2.7041   -1.7840    0.0000 N   0  0  0  0  0  0  0  0  0  0  0  0
    2.4492   -2.5687    0.0000 N   0  0  0  0  0  0  0  0  0  0  0  0
    1.6242   -2.5687    0.0000 C   0  0  0  0  0  0  0  0  0  0  0  0
    1.1393   -3.2361    0.0000 N   0  0  0  0  0  0  0  0  0  0  0  0
    0.3188   -3.1499    0.0000 C   0  0  0  0  0  0  0  0  0  0  0  0
   -0.1661   -3.8173    0.0000 C   0  0  0  0  0  0  0  0  0  0  0  0
   -0.9866   -3.7311    0.0000 C   0  0  0  0  0  0  0  0  0  0  0  0
   -1.3222   -2.9774    0.0000 C   0  0  0  0  0  0  0  0  0  0  0  0
   -2.1426   -2.8911    0.0000 C   0  0  0  0  0  0  0  0  0  0  0  0
   -2.9631   -2.8049    0.0000 F   0  0  0  0  0  0  0  0  0  0  0  0
   -2.0564   -2.0707    0.0000 F   0  0  0  0  0  0  0  0  0  0  0  0
   -2.2289   -3.7116    0.0000 F   0  0  0  0  0  0  0  0  0  0  0  0
   -0.8372   -2.3099    0.0000 C   0  0  0  0  0  0  0  0  0  0  0  0
   -0.0168   -2.3962    0.0000 C   0  0  0  0  0  0  0  0  0  0  0  0
    1.3693   -1.7840    0.0000 C   0  0  0  0  0  0  0  0  0  0  0  0
    0.5846   -1.5291    0.0000 C   0  0  0  0  0  0  0  0  0  0  0  0
  1  2  1  0  0  0  0
  2  3  4  0  0  0  0
  3  4  4  0  0  0  0
  4  5  4  0  0  0  0
  5  6  1  0  0  0  0
  6  7  1  0  0  0  0
  7  8  4  0  0  0  0
  8  9  4  0  0  0  0
  9 10  4  0  0  0  0
 10 11  1  0  0  0  0
 11 12  1  0  0  0  0
 11 13  1  0  0  0  0
 11 14  1  0  0  0  0
 10 15  4  0  0  0  0
 15 16  4  0  0  0  0
  7 16  4  0  0  0  0
  5 17  4  0  0  0  0
  2 17  4  0  0  0  0
 17 18  1  0  0  0  0
M  STY  1   1 DAT
M  SAL   1  1   4
M  SDT   1 MRV_IMPLICIT_H                                        
M  SDD   1     0.5304   -0.4125    DR    ALL  0       0  
M  SED   1 IMPL_H1
M  END
> <IC50(uM)>
22.5

> <Outcome>
0.0

> <BindingDB ID>
50786784

> <BindingDB MonomerID>
50066599

> <BindingDB Ligand Name>
(4,5-Dimethyl-1H-pyrazol-3-yl)-(4-trifluoromethyl-phenyl)-amine::CHEMBL116946

> <Curation/DataSource>
ChEMBL

> <Article DOI>
10.1021/jm981028c

> <PMID>
9719606

> <Patent Number>
?

> <Authors>
Papageorgiou, C; Albert, R; Floersheim, P; Lemaire, M; Bitch, F; Weber, HP; Andersen, E; Hungerford, V; Schreier, MH

> <Link to Ligand in BindingDB>
http://www.bindingdb.org/bind/chemsearch/marvin/MolStructure.jsp?monomerid=50066599

> <Link to Ligand-Target Pair in BindingDB>
http://www.bindingdb.org/jsp/dbsearch/PrimarySearch_ki.jsp?energyterm=kJ/mole&tag=r21&monomerid=50066599&enzyme=Dihydroorotate+dehydrogenase&column=ki&startPg=0&Increment=50&submit=Search

> <PubChem CID>
10800984

> <PubChem SID>
103961219

$$$$

  Mrv2115 07222212352D          

 33 36  0  0  0  0            999 V2000
   -0.6284    2.1599    0.0000 C   0  0  0  0  0  0  0  0  0  0  0  0
   -1.4534    2.1599    0.0000 C   0  0  0  0  0  0  0  0  0  0  0  0
   -1.8659    1.4455    0.0000 C   0  0  0  0  0  0  0  0  0  0  0  0
   -2.6909    1.4455    0.0000 C   0  0  0  0  0  0  0  0  0  0  0  0
   -3.1034    2.1599    0.0000 C   0  0  0  0  0  0  0  0  0  0  0  0
   -3.1034    0.7310    0.0000 O   0  0  0  0  0  0  0  0  0  0  0  0
   -2.6909    0.0165    0.0000 C   0  0  0  0  0  0  0  0  0  0  0  0
   -1.8659    0.0165    0.0000 C   0  0  0  0  0  0  0  0  0  0  0  0
   -1.4534   -0.6979    0.0000 C   0  0  0  0  0  0  0  0  0  0  0  0
   -0.6284   -0.6979    0.0000 N   0  0  0  0  0  0  0  0  0  0  0  0
   -0.1435   -1.3654    0.0000 N   0  0  0  0  0  0  0  0  0  0  0  0
    0.6411   -1.1104    0.0000 C   0  0  0  0  0  0  0  0  0  0  0  0
    0.6411   -0.2854    0.0000 N   0  0  0  0  0  0  0  0  0  0  0  0
   -0.1435   -0.0305    0.0000 C   0  0  0  0  0  0  0  0  0  0  0  0
   -0.3984    0.7541    0.0000 O   0  0  0  0  0  0  0  0  0  0  0  0
    1.3556    0.1271    0.0000 C   0  0  0  0  0  0  0  0  0  0  0  0
    2.0701   -0.2854    0.0000 C   0  0  0  0  0  0  0  0  0  0  0  0
    2.0701   -1.1104    0.0000 C   0  0  0  0  0  0  0  0  0  0  0  0
    1.3556   -1.5229    0.0000 C   0  0  0  0  0  0  0  0  0  0  0  0
   -1.8659   -1.4124    0.0000 C   0  0  0  0  0  0  0  0  0  0  0  0
   -1.4534   -2.1269    0.0000 F   0  0  0  0  0  0  0  0  0  0  0  0
   -2.6909   -1.4124    0.0000 C   0  0  0  0  0  0  0  0  0  0  0  0
   -3.1034   -0.6979    0.0000 C   0  0  0  0  0  0  0  0  0  0  0  0
   -3.9284   -0.6979    0.0000 C   0  0  0  0  0  0  0  0  0  0  0  0
   -4.3409    0.0165    0.0000 O   0  0  0  0  0  0  0  0  0  0  0  0
   -4.3409   -1.4124    0.0000 N   0  0  0  0  0  0  0  0  0  0  0  0
   -3.9284   -2.1269    0.0000 C   0  0  0  0  0  0  0  0  0  0  0  0
   -3.1034   -2.1269    0.0000 N   0  0  0  0  0  0  0  0  0  0  0  0
   -2.6909   -2.8414    0.0000 C   0  0  0  0  0  0  0  0  0  0  0  0
   -3.1034   -3.5558    0.0000 N   0  0  0  0  0  0  0  0  0  0  0  0
   -3.9284   -3.5558    0.0000 C   0  0  0  0  0  0  0  0  0  0  0  0
   -4.3409   -2.8414    0.0000 C   0  0  0  0  0  0  0  0  0  0  0  0
   -5.1659   -2.8414    0.0000 C   0  0  0  0  0  0  0  0  0  0  0  0
  1  2  1  0  0  0  0
  2  3  1  0  0  0  0
  3  4  1  0  0  0  0
  4  5  1  0  0  0  0
  4  6  1  0  0  0  0
  6  7  1  0  0  0  0
  7  8  4  0  0  0  0
  8  9  4  0  0  0  0
  9 10  1  0  0  0  0
 10 11  4  0  0  0  0
 11 12  4  0  0  0  0
 12 13  4  0  0  0  0
 13 14  4  0  0  0  0
 10 14  4  0  0  0  0
 14 15  2  0  0  0  0
 13 16  1  0  0  0  0
 16 17  1  0  0  0  0
 17 18  1  0  0  0  0
 18 19  1  0  0  0  0
 12 19  1  0  0  0  0
  9 20  4  0  0  0  0
 20 21  1  0  0  0  0
 20 22  4  0  0  0  0
 22 23  4  0  0  0  0
  7 23  4  0  0  0  0
 23 24  1  0  0  0  0
 24 25  2  0  0  0  0
 24 26  1  0  0  0  0
 26 27  1  0  0  0  0
 27 28  4  0  0  0  0
 28 29  4  0  0  0  0
 29 30  4  0  0  0  0
 30 31  4  0  0  0  0
 31 32  4  0  0  0  0
 27 32  4  0  0  0  0
 32 33  1  0  0  0  0
M  END
> <IC50(uM)>
0.19

> <Outcome>
1.0

> <BindingDB ID>
1020389

> <BindingDB MonomerID>
490345

> <BindingDB Ligand Name>
5-fluoro-N-(5-methylpyrimidin-4-yl)-4-(3-oxo-5,6,7,8-tetrahydro[1,2,4]triazolo[4,3-a]pyridin-2(3H)-yl)-2-[(2S)-pentan-2-yloxy]benzamide::US10968216, Example 13

> <Curation/DataSource>
US Patent

> <Article DOI>
?

> <PMID>
?

> <Patent Number>
US10968216

> <Authors>
Gradl, SN; Nguyen, D; Eis, K; Gunther, J; Stellfeld, T; Janzer, A; Christian, S; Mueller, T; Sheikh, SE; Zhou, HJ; Zhao, C; Sykes, DB; Ferrara, SJ; Liu, K; Herbert, SA; Merz, C; Niehues, M; Nising, CF; Schafer, M; Zimmermann, K; Knablein, J; Thede, K; Faupel, T

> <Link to Ligand in BindingDB>
http://www.bindingdb.org/bind/chemsearch/marvin/MolStructure.jsp?monomerid=490345

> <Link to Ligand-Target Pair in BindingDB>
http://www.bindingdb.org/jsp/dbsearch/PrimarySearch_ki.jsp?energyterm=kJ/mole&tag=r21&monomerid=490345&enzyme=Dihydroorotate+dehydrogenase&column=ki&startPg=0&Increment=50&submit=Search

> <PubChem CID>
134473878

> <PubChem SID>
447117072

$$$$

  Mrv2115 07222212352D          

 32 35  0  0  0  0            999 V2000
    0.7145   -2.8875    0.0000 C   0  0  0  0  0  0  0  0  0  0  0  0
    0.0000   -2.4750    0.0000 C   0  0  0  0  0  0  0  0  0  0  0  0
   -0.7145   -2.8875    0.0000 C   0  0  0  0  0  0  0  0  0  0  0  0
   -1.4289   -2.4750    0.0000 C   0  0  0  0  0  0  0  0  0  0  0  0
   -1.4289   -1.6500    0.0000 C   0  0  0  0  0  0  0  0  0  0  0  0
   -0.7145   -1.2375    0.0000 C   0  0  0  0  0  0  0  0  0  0  0  0
    0.0000   -1.6500    0.0000 C   0  0  0  0  0  0  0  0  0  0  0  0
    0.7145   -1.2375    0.0000 N   0  0  0  0  0  0  0  0  0  0  0  0
    0.7145   -0.4125    0.0000 N   0  0  0  0  0  0  0  0  0  0  0  0
    1.4289    0.0000    0.0000 C   0  0  0  0  0  0  0  0  0  0  0  0
    1.4289    0.8250    0.0000 C   0  0  0  0  0  0  0  0  0  0  0  0
    2.1434    1.2375    0.0000 C   0  0  0  0  0  0  0  0  0  0  0  0
    0.7145    1.2375    0.0000 C   0  0  0  0  0  0  0  0  0  0  0  0
    2.1434   -0.4125    0.0000 C   0  0  0  0  0  0  0  0  0  0  0  0
    2.8579    0.0000    0.0000 C   0  0  0  0  0  0  0  0  0  0  0  0
    3.5724   -0.4125    0.0000 C   0  0  0  0  0  0  0  0  0  0  0  0
    4.2868   -0.0000    0.0000 C   0  0  0  0  0  0  0  0  0  0  0  0
    4.3731    0.8205    0.0000 C   0  0  0  0  0  0  0  0  0  0  0  0
    5.1800    0.9920    0.0000 N   0  0  0  0  0  0  0  0  0  0  0  0
    5.5156    1.7457    0.0000 C   0  0  0  0  0  0  0  0  0  0  0  0
    5.5925    0.2775    0.0000 C   0  0  0  0  0  0  0  0  0  0  0  0
    6.4130    0.1913    0.0000 C   0  0  0  0  0  0  0  0  0  0  0  0
    7.2335    0.1051    0.0000 C   0  0  0  0  0  0  0  0  0  0  0  0
    6.3268   -0.6292    0.0000 C   0  0  0  0  0  0  0  0  0  0  0  0
    6.4993    1.0118    0.0000 O   0  0  0  0  0  0  0  0  0  0  0  0
    5.0405   -0.3356    0.0000 N   0  0  0  0  0  0  0  0  0  0  0  0
    3.5724   -1.2375    0.0000 C   0  0  0  0  0  0  0  0  0  0  0  0
    4.2868   -1.6500    0.0000 F   0  0  0  0  0  0  0  0  0  0  0  0
    2.8579   -1.6500    0.0000 C   0  0  0  0  0  0  0  0  0  0  0  0
    2.1434   -1.2375    0.0000 C   0  0  0  0  0  0  0  0  0  0  0  0
    1.4289   -1.6500    0.0000 C   0  0  0  0  0  0  0  0  0  0  0  0
    1.4289   -2.4750    0.0000 O   0  0  0  0  0  0  0  0  0  0  0  0
  1  2  1  0  0  0  0
  2  3  4  0  0  0  0
  3  4  4  0  0  0  0
  4  5  4  0  0  0  0
  5  6  4  0  0  0  0
  6  7  4  0  0  0  0
  2  7  4  0  0  0  0
  7  8  1  0  0  0  0
  8  9  4  0  0  0  0
  9 10  4  0  0  0  0
 10 11  1  0  0  0  0
 11 12  1  0  0  0  0
 11 13  1  0  0  0  0
 10 14  4  0  0  0  0
 14 15  4  0  0  0  0
 15 16  4  0  0  0  0
 16 17  1  0  0  0  0
 17 18  4  0  0  0  0
 18 19  4  0  0  0  0
 19 20  1  0  0  0  0
 19 21  4  0  0  0  0
 21 22  1  0  0  0  0
 22 23  1  0  0  0  0
 22 24  1  0  0  0  0
 22 25  1  0  0  0  0
 21 26  4  0  0  0  0
 17 26  4  0  0  0  0
 16 27  4  0  0  0  0
 27 28  1  0  0  0  0
 27 29  4  0  0  0  0
 29 30  4  0  0  0  0
 14 30  4  0  0  0  0
 30 31  4  0  0  0  0
  8 31  4  0  0  0  0
 31 32  2  0  0  0  0
M  END
> <IC50(uM)>
4.5E-4

> <Outcome>
1.0

> <BindingDB ID>
1121376

> <BindingDB MonomerID>
530442

> <BindingDB Ligand Name>
7-Fluoro-6-(2-(2-hydroxypropan-2-yl)-1-methyl-1H-imidazol-4-yl)-4-isopropyl-2- (o-tolyl)phthalazin-1(2H)-one.::WO2022070068, Example 14

> <Curation/DataSource>
Curated from the literature by BindingDB

> <Article DOI>
?

> <PMID>
WO2022070068

> <Patent Number>
?

> <Authors>
Lindsey, D; Scott, K; Zhuming, Z

> <Link to Ligand in BindingDB>
http://www.bindingdb.org/bind/chemsearch/marvin/MolStructure.jsp?monomerid=530442

> <Link to Ligand-Target Pair in BindingDB>
http://www.bindingdb.org/jsp/dbsearch/PrimarySearch_ki.jsp?energyterm=kJ/mole&tag=r21&monomerid=530442&enzyme=Dihydroorotate+dehydrogenase&column=ki&startPg=0&Increment=50&submit=Search

> <PubChem CID>
?

> <PubChem SID>
?

$$$$

  Mrv2115 07222212352D          

 34 38  0  0  0  0            999 V2000
    4.0668    2.3479    0.0000 C   0  0  0  0  0  0  0  0  0  0  0  0
    3.3523    1.9354    0.0000 C   0  0  0  0  0  0  0  0  0  0  0  0
    3.3523    1.1104    0.0000 C   0  0  0  0  0  0  0  0  0  0  0  0
    2.6378    0.6979    0.0000 C   0  0  0  0  0  0  0  0  0  0  0  0
    2.6378   -0.1271    0.0000 C   0  0  0  0  0  0  0  0  0  0  0  0
    1.9233   -0.5396    0.0000 O   0  0  0  0  0  0  0  0  0  0  0  0
    3.3523   -0.5396    0.0000 O   0  0  0  0  0  0  0  0  0  0  0  0
    1.9233    1.1104    0.0000 C   0  0  0  0  0  0  0  0  0  0  0  0
    1.1387    0.8555    0.0000 N   0  0  0  0  0  0  0  0  0  0  0  0
    0.6538    1.5229    0.0000 C   0  0  0  0  0  0  0  0  0  0  0  0
   -0.1712    1.5229    0.0000 C   0  0  0  0  0  0  0  0  0  0  0  0
   -0.5837    0.8085    0.0000 C   0  0  0  0  0  0  0  0  0  0  0  0
   -1.4087    0.8085    0.0000 C   0  0  0  0  0  0  0  0  0  0  0  0
   -1.8212    1.5229    0.0000 C   0  0  0  0  0  0  0  0  0  0  0  0
   -2.6462    1.5229    0.0000 C   0  0  0  0  0  0  0  0  0  0  0  0
   -3.0587    0.8085    0.0000 C   0  0  0  0  0  0  0  0  0  0  0  0
   -3.8837    0.8085    0.0000 C   0  0  0  0  0  0  0  0  0  0  0  0
   -4.2962    1.5229    0.0000 C   0  0  0  0  0  0  0  0  0  0  0  0
   -5.1212    1.5229    0.0000 O   0  0  0  0  0  0  0  0  0  0  0  0
   -5.5337    2.2374    0.0000 C   0  0  0  0  0  0  0  0  0  0  0  0
   -6.3587    2.2374    0.0000 C   0  0  0  0  0  0  0  0  0  0  0  0
   -6.7712    2.9519    0.0000 C   0  0  0  0  0  0  0  0  0  0  0  0
   -7.5962    2.9519    0.0000 C   0  0  0  0  0  0  0  0  0  0  0  0
   -8.0087    3.6664    0.0000 C   0  0  0  0  0  0  0  0  0  0  0  0
   -7.5962    4.3808    0.0000 N   0  0  0  0  0  0  0  0  0  0  0  0
   -6.7712    4.3808    0.0000 C   0  0  0  0  0  0  0  0  0  0  0  0
   -6.3587    3.6664    0.0000 C   0  0  0  0  0  0  0  0  0  0  0  0
   -3.8837    2.2374    0.0000 C   0  0  0  0  0  0  0  0  0  0  0  0
   -3.0587    2.2374    0.0000 C   0  0  0  0  0  0  0  0  0  0  0  0
   -1.4087    2.2374    0.0000 C   0  0  0  0  0  0  0  0  0  0  0  0
   -0.5837    2.2374    0.0000 C   0  0  0  0  0  0  0  0  0  0  0  0
    1.1387    2.1904    0.0000 N   0  0  0  0  0  0  0  0  0  0  0  0
    1.9233    1.9354    0.0000 C   0  0  0  0  0  0  0  0  0  0  0  0
    2.6378    2.3479    0.0000 C   0  0  0  0  0  0  0  0  0  0  0  0
  1  2  1  0  0  0  0
  2  3  4  0  0  0  0
  3  4  4  0  0  0  0
  4  5  1  0  0  0  0
  5  6  2  0  0  0  0
  5  7  1  0  0  0  0
  4  8  4  0  0  0  0
  8  9  4  0  0  0  0
  9 10  4  0  0  0  0
 10 11  1  0  0  0  0
 11 12  4  0  0  0  0
 12 13  4  0  0  0  0
 13 14  4  0  0  0  0
 14 15  1  0  0  0  0
 15 16  4  0  0  0  0
 16 17  4  0  0  0  0
 17 18  4  0  0  0  0
 18 19  1  0  0  0  0
 19 20  1  0  0  0  0
 20 21  1  0  0  0  0
 21 22  1  0  0  0  0
 22 23  1  0  0  0  0
 23 24  1  0  0  0  0
 24 25  1  0  0  0  0
 25 26  1  0  0  0  0
 26 27  1  0  0  0  0
 22 27  1  0  0  0  0
 18 28  4  0  0  0  0
 28 29  4  0  0  0  0
 15 29  4  0  0  0  0
 14 30  4  0  0  0  0
 30 31  4  0  0  0  0
 11 31  4  0  0  0  0
 10 32  4  0  0  0  0
 32 33  4  0  0  0  0
  8 33  4  0  0  0  0
 33 34  4  0  0  0  0
  2 34  4  0  0  0  0
M  STY  1   1 DAT
M  SAL   1  1   9
M  SDT   1 MRV_IMPLICIT_H                                        
M  SDD   1     0.5304   -0.4125    DR    ALL  0       0  
M  SED   1 IMPL_H1
M  END
> <IC50(uM)>
6.014

> <Outcome>
0.0

> <BindingDB ID>
297797

> <BindingDB MonomerID>
155453

> <BindingDB Ligand Name>
US9006454, I95

> <Curation/DataSource>
US Patent

> <Article DOI>
?

> <PMID>
?

> <Patent Number>
US9006454

> <Authors>
Thunuguntla, SS; Subramanya, H; Kunnam, SR; Sanivaru Vijay, SR; Bingi, C; Kusanur, R; Schwarz, M; Arlt, M

> <Link to Ligand in BindingDB>
http://www.bindingdb.org/bind/chemsearch/marvin/MolStructure.jsp?monomerid=155453

> <Link to Ligand-Target Pair in BindingDB>
http://www.bindingdb.org/jsp/dbsearch/PrimarySearch_ki.jsp?energyterm=kJ/mole&tag=r21&monomerid=155453&enzyme=Dihydroorotate+dehydrogenase&column=ki&startPg=0&Increment=50&submit=Search

> <PubChem CID>
68083752

> <PubChem SID>
253658390

$$$$

  Mrv2115 07222212352D          

 33 35  0  0  0  0            999 V2000
    2.1434   -3.7125    0.0000 C   0  0  0  0  0  0  0  0  0  0  0  0
    2.8579   -4.1250    0.0000 C   0  0  0  0  0  0  0  0  0  0  0  0
    2.8579   -4.9500    0.0000 C   0  0  0  0  0  0  0  0  0  0  0  0
    3.5724   -3.7125    0.0000 C   0  0  0  0  0  0  0  0  0  0  0  0
    4.2868   -4.1250    0.0000 C   0  0  0  0  0  0  0  0  0  0  0  0
    4.2868   -4.9500    0.0000 C   0  0  0  0  0  0  0  0  0  0  0  0
    5.0013   -3.7125    0.0000 O   0  0  0  0  0  0  0  0  0  0  0  0
    5.0013   -2.8875    0.0000 C   0  0  0  0  0  0  0  0  0  0  0  0
    4.2868   -2.4750    0.0000 C   0  0  0  0  0  0  0  0  0  0  0  0
    4.2868   -1.6500    0.0000 C   0  0  0  0  0  0  0  0  0  0  0  0
    3.5724   -1.2375    0.0000 N   0  0  0  0  0  0  0  0  0  0  0  0
    2.8187   -1.5731    0.0000 N   0  0  0  0  0  0  0  0  0  0  0  0
    2.2666   -0.9600    0.0000 C   0  0  0  0  0  0  0  0  0  0  0  0
    1.4462   -1.0462    0.0000 C   0  0  0  0  0  0  0  0  0  0  0  0
    0.9612   -0.3788    0.0000 C   0  0  0  0  0  0  0  0  0  0  0  0
    1.1106   -1.7999    0.0000 C   0  0  0  0  0  0  0  0  0  0  0  0
    2.6791   -0.2455    0.0000 N   0  0  0  0  0  0  0  0  0  0  0  0
    2.3436    0.5082    0.0000 C   0  0  0  0  0  0  0  0  0  0  0  0
    3.4861   -0.4170    0.0000 C   0  0  0  0  0  0  0  0  0  0  0  0
    4.0992    0.1350    0.0000 O   0  0  0  0  0  0  0  0  0  0  0  0
    5.0013   -1.2375    0.0000 C   0  0  0  0  0  0  0  0  0  0  0  0
    5.0013   -0.4125    0.0000 F   0  0  0  0  0  0  0  0  0  0  0  0
    5.7158   -1.6500    0.0000 C   0  0  0  0  0  0  0  0  0  0  0  0
    5.7158   -2.4750    0.0000 C   0  0  0  0  0  0  0  0  0  0  0  0
    6.4302   -2.8875    0.0000 C   0  0  0  0  0  0  0  0  0  0  0  0
    6.4302   -3.7125    0.0000 O   0  0  0  0  0  0  0  0  0  0  0  0
    7.1447   -2.4750    0.0000 N   0  0  0  0  0  0  0  0  0  0  0  0
    7.8592   -2.8875    0.0000 C   0  0  0  0  0  0  0  0  0  0  0  0
    8.5737   -2.4750    0.0000 C   0  0  0  0  0  0  0  0  0  0  0  0
    9.2881   -2.8875    0.0000 C   0  0  0  0  0  0  0  0  0  0  0  0
    9.2881   -3.7125    0.0000 O   0  0  0  0  0  0  0  0  0  0  0  0
    8.5737   -4.1250    0.0000 C   0  0  0  0  0  0  0  0  0  0  0  0
    7.8592   -3.7125    0.0000 C   0  0  0  0  0  0  0  0  0  0  0  0
  1  2  1  0  0  0  0
  2  3  1  0  0  0  0
  2  4  1  0  0  0  0
  4  5  1  0  0  0  0
  5  6  1  0  0  0  0
  5  7  1  0  0  0  0
  7  8  1  0  0  0  0
  8  9  4  0  0  0  0
  9 10  4  0  0  0  0
 10 11  1  0  0  0  0
 11 12  4  0  0  0  0
 12 13  4  0  0  0  0
 13 14  1  0  0  0  0
 14 15  1  0  0  0  0
 14 16  1  0  0  0  0
 13 17  4  0  0  0  0
 17 18  1  0  0  0  0
 17 19  4  0  0  0  0
 11 19  4  0  0  0  0
 19 20  2  0  0  0  0
 10 21  4  0  0  0  0
 21 22  1  0  0  0  0
 21 23  4  0  0  0  0
 23 24  4  0  0  0  0
  8 24  4  0  0  0  0
 24 25  1  0  0  0  0
 25 26  2  0  0  0  0
 25 27  1  0  0  0  0
 27 28  1  0  0  0  0
 28 29  1  0  0  0  0
 29 30  1  0  0  0  0
 30 31  1  0  0  0  0
 31 32  1  0  0  0  0
 32 33  1  0  0  0  0
 28 33  1  0  0  0  0
M  END
> <IC50(uM)>
5.85

> <Outcome>
0.0

> <BindingDB ID>
1098767; 972613; 1098768; 972614

> <BindingDB MonomerID>
470501

> <BindingDB Ligand Name>
5-fluoro-4-[4-methyl-5-oxo-3-(propan-2-yl)-4,5-dihydro-1H-1,2,4-triazol-1-yl]-2-{[(2S)-4-methyl-pentan-2-yl]oxy}-N-(tetrahydro-2H-pyran-4-yl)benzamide::US10815215, Example 153::US11130745, Example 153; 5-fluoro-4-[4-methyl-5-oxo-3-(propan-2-yl)-4,5-dihydro-1H-1,2,4-triazol-1-yl]-2-{[(2S)-4-methyl-pentan-2-yl]oxy}-N-(tetrahydro-2H-pyran-4-yl)benzamide::US10815215, Example 153

> <Curation/DataSource>
US Patent

> <Article DOI>
?

> <PMID>
?

> <Patent Number>
US11130745; US10815215

> <Authors>
Gradl, SN; Nguyen, D; Eis, K; Gunther, J; Stellfeld, T; Janzer, A; Christian, S; Muller, T; Sheikh, SE; Sykes, DB; Ferrara, SJ; Krober, M; Merz, C; Niehues, M; Schafer, M; Zimmermann, K; Nising, CF; Gradl, SN; Nguyen, D; Eis, K; Gunther, J; Stellfeld, T; Janzer, A; Christian, S; Muller, T; Sheikh, SE; Zhou, HJ; Zhao, C; Sykes, DB; Ferrara, SJ; Liu, K; Krober, M; Merz, C; Niehues, M; Schafer, M; Zimmermann, K; Nising, CF

> <Link to Ligand in BindingDB>
http://www.bindingdb.org/bind/chemsearch/marvin/MolStructure.jsp?monomerid=470501

> <Link to Ligand-Target Pair in BindingDB>
http://www.bindingdb.org/jsp/dbsearch/PrimarySearch_ki.jsp?energyterm=kJ/mole&tag=r21&monomerid=470501&enzyme=Dihydroorotate+dehydrogenase&column=ki&startPg=0&Increment=50&submit=Search

> <PubChem CID>
134469967

> <PubChem SID>
441609678

$$$$

  Mrv2115 07222212352D          

 27 30  0  0  0  0            999 V2000
    2.1434   -2.8875    0.0000 O   0  0  0  0  0  0  0  0  0  0  0  0
    1.4289   -2.4750    0.0000 C   0  0  0  0  0  0  0  0  0  0  0  0
    0.7145   -2.8875    0.0000 O   0  0  0  0  0  0  0  0  0  0  0  0
    1.4289   -1.6500    0.0000 C   0  0  0  0  0  0  0  0  0  0  0  0
    0.7145   -1.2375    0.0000 C   0  0  0  0  0  0  0  0  0  0  0  0
    0.0000   -1.6500    0.0000 O   0  0  0  0  0  0  0  0  0  0  0  0
    0.7145   -0.4125    0.0000 C   0  0  0  0  0  0  0  0  0  0  0  0
    0.0000    0.0000    0.0000 C   0  0  0  0  0  0  0  0  0  0  0  0
   -0.7145   -0.4125    0.0000 C   0  0  0  0  0  0  0  0  0  0  0  0
   -1.4289    0.0000    0.0000 C   0  0  0  0  0  0  0  0  0  0  0  0
   -1.4289    0.8250    0.0000 C   0  0  0  0  0  0  0  0  0  0  0  0
   -2.1434    1.2375    0.0000 Cl  0  0  0  0  0  0  0  0  0  0  0  0
   -0.7145    1.2375    0.0000 C   0  0  0  0  0  0  0  0  0  0  0  0
    0.0000    0.8250    0.0000 C   0  0  0  0  0  0  0  0  0  0  0  0
    1.4289    0.0000    0.0000 N   0  0  0  0  0  0  0  0  0  0  0  0
    2.1434   -0.4125    0.0000 C   0  0  0  0  0  0  0  0  0  0  0  0
    2.8579    0.0000    0.0000 C   0  0  0  0  0  0  0  0  0  0  0  0
    3.5724   -0.4125    0.0000 C   0  0  0  0  0  0  0  0  0  0  0  0
    3.5724   -1.2375    0.0000 C   0  0  0  0  0  0  0  0  0  0  0  0
    4.2868   -1.6500    0.0000 C   0  0  0  0  0  0  0  0  0  0  0  0
    5.0013   -1.2375    0.0000 C   0  0  0  0  0  0  0  0  0  0  0  0
    5.7158   -1.6500    0.0000 C   0  0  0  0  0  0  0  0  0  0  0  0
    5.7158   -2.4750    0.0000 C   0  0  0  0  0  0  0  0  0  0  0  0
    5.0013   -2.8875    0.0000 C   0  0  0  0  0  0  0  0  0  0  0  0
    4.2868   -2.4750    0.0000 C   0  0  0  0  0  0  0  0  0  0  0  0
    2.8579   -1.6500    0.0000 C   0  0  0  0  0  0  0  0  0  0  0  0
    2.1434   -1.2375    0.0000 C   0  0  0  0  0  0  0  0  0  0  0  0
  1  2  2  0  0  0  0
  2  3  1  0  0  0  0
  2  4  1  0  0  0  0
  4  5  4  0  0  0  0
  5  6  1  0  0  0  0
  5  7  4  0  0  0  0
  7  8  1  0  0  0  0
  8  9  4  0  0  0  0
  9 10  4  0  0  0  0
 10 11  4  0  0  0  0
 11 12  1  0  0  0  0
 11 13  4  0  0  0  0
 13 14  4  0  0  0  0
  8 14  4  0  0  0  0
  7 15  4  0  0  0  0
 15 16  4  0  0  0  0
 16 17  4  0  0  0  0
 17 18  4  0  0  0  0
 18 19  4  0  0  0  0
 19 20  1  0  0  0  0
 20 21  4  0  0  0  0
 21 22  4  0  0  0  0
 22 23  4  0  0  0  0
 23 24  4  0  0  0  0
 24 25  4  0  0  0  0
 20 25  4  0  0  0  0
 19 26  4  0  0  0  0
 26 27  4  0  0  0  0
  4 27  4  0  0  0  0
 16 27  4  0  0  0  0
M  END
> <IC50(uM)>
230.0

> <Outcome>
0.0

> <BindingDB ID>
50841912

> <BindingDB MonomerID>
50201922

> <BindingDB Ligand Name>
2-(4-chlorophenyl)-3-hydroxy-6-phenylquinoline-4-carboxylic acid::CHEMBL384983

> <Curation/DataSource>
ChEMBL

> <Article DOI>
10.1021/jm0602256

> <PMID>
17201408

> <Patent Number>
?

> <Authors>
Kaila, N; Janz, K; DeBernardo, S; Bedard, PW; Camphausen, RT; Tam, S; Tsao, DH; Keith, JC; Nickerson-Nutter, C; Shilling, A; Young-Sciame, R; Wang, Q

> <Link to Ligand in BindingDB>
http://www.bindingdb.org/bind/chemsearch/marvin/MolStructure.jsp?monomerid=50201922

> <Link to Ligand-Target Pair in BindingDB>
http://www.bindingdb.org/jsp/dbsearch/PrimarySearch_ki.jsp?energyterm=kJ/mole&tag=r21&monomerid=50201922&enzyme=Dihydroorotate+dehydrogenase&column=ki&startPg=0&Increment=50&submit=Search

> <PubChem CID>
16099926

> <PubChem SID>
104081573

$$$$

  Mrv2115 07222212352D          

 22 23  0  0  0  0            999 V2000
   -0.7145    0.4125    0.0000 N   0  0  0  0  0  0  0  0  0  0  0  0
   -1.4289   -0.0000    0.0000 C   0  0  0  0  0  0  0  0  0  0  0  0
   -2.1434   -0.4125    0.0000 C   0  0  0  0  0  0  0  0  0  0  0  0
   -2.1434   -1.2375    0.0000 C   0  0  0  0  0  0  0  0  0  0  0  0
   -2.8579   -1.6500    0.0000 O   0  0  0  0  0  0  0  0  0  0  0  0
   -1.4289   -1.6500    0.0000 N   0  0  0  0  0  0  0  0  0  0  0  0
   -1.4289   -2.4750    0.0000 C   0  0  0  0  0  0  0  0  0  0  0  0
   -0.7145   -2.8875    0.0000 C   0  0  0  0  0  0  0  0  0  0  0  0
   -0.7145   -3.7125    0.0000 C   0  0  0  0  0  0  0  0  0  0  0  0
   -1.4289   -4.1250    0.0000 C   0  0  0  0  0  0  0  0  0  0  0  0
   -1.4289   -4.9500    0.0000 C   0  0  0  0  0  0  0  0  0  0  0  0
   -1.4289   -5.7750    0.0000 F   0  0  0  0  0  0  0  0  0  0  0  0
   -0.6039   -4.9500    0.0000 F   0  0  0  0  0  0  0  0  0  0  0  0
   -2.2539   -4.9500    0.0000 F   0  0  0  0  0  0  0  0  0  0  0  0
   -2.1434   -3.7125    0.0000 C   0  0  0  0  0  0  0  0  0  0  0  0
   -2.1434   -2.8875    0.0000 C   0  0  0  0  0  0  0  0  0  0  0  0
   -2.8579   -0.0000    0.0000 C   0  0  0  0  0  0  0  0  0  0  0  0
   -3.5724   -0.4125    0.0000 C   0  0  0  0  0  0  0  0  0  0  0  0
   -4.2868   -0.0000    0.0000 C   0  0  0  0  0  0  0  0  0  0  0  0
   -4.2868    0.8250    0.0000 C   0  0  0  0  0  0  0  0  0  0  0  0
   -3.5724    1.2375    0.0000 C   0  0  0  0  0  0  0  0  0  0  0  0
   -2.8579    0.8250    0.0000 O   0  0  0  0  0  0  0  0  0  0  0  0
  1  2  3  0  0  0  0
  2  3  1  0  0  0  0
  3  4  1  0  0  0  0
  4  5  2  0  0  0  0
  4  6  1  0  0  0  0
  6  7  1  0  0  0  0
  7  8  4  0  0  0  0
  8  9  4  0  0  0  0
  9 10  4  0  0  0  0
 10 11  1  0  0  0  0
 11 12  1  0  0  0  0
 11 13  1  0  0  0  0
 11 14  1  0  0  0  0
 10 15  4  0  0  0  0
 15 16  4  0  0  0  0
  7 16  4  0  0  0  0
  3 17  2  0  0  0  0
 17 18  1  0  0  0  0
 18 19  1  0  0  0  0
 19 20  1  0  0  0  0
 20 21  1  0  0  0  0
 21 22  1  0  0  0  0
 17 22  1  0  0  0  0
M  END
> <IC50(uM)>
50.0

> <Outcome>
0.0

> <BindingDB ID>
176946

> <BindingDB MonomerID>
85308

> <BindingDB Ligand Name>
Tetrahydropyranyl derivative, 8 (E)

> <Curation/DataSource>
Curated from the literature by BindingDB

> <Article DOI>
?

> <PMID>
?

> <Patent Number>
?

> <Authors>
Papagergiou, C; Zurini, M; Weber, HP; Borer, X

> <Link to Ligand in BindingDB>
http://www.bindingdb.org/bind/chemsearch/marvin/MolStructure.jsp?monomerid=85308

> <Link to Ligand-Target Pair in BindingDB>
http://www.bindingdb.org/jsp/dbsearch/PrimarySearch_ki.jsp?energyterm=kJ/mole&tag=r21&monomerid=85308&enzyme=Dihydroorotate+dehydrogenase&column=ki&startPg=0&Increment=50&submit=Search

> <PubChem CID>
15363543

> <PubChem SID>
136351408

$$$$

  Mrv2115 07222212352D          

 22 23  0  0  0  0            999 V2000
    2.1434    0.4125    0.0000 N   0  0  0  0  0  0  0  0  0  0  0  0
    2.8579    0.0000    0.0000 C   0  0  0  0  0  0  0  0  0  0  0  0
    3.5724   -0.4125    0.0000 C   0  0  0  0  0  0  0  0  0  0  0  0
    3.5724   -1.2375    0.0000 C   0  0  0  0  0  0  0  0  0  0  0  0
    4.2868   -1.6500    0.0000 O   0  0  0  0  0  0  0  0  0  0  0  0
    2.8579   -1.6500    0.0000 N   0  0  0  0  0  0  0  0  0  0  0  0
    2.8579   -2.4750    0.0000 C   0  0  0  0  0  0  0  0  0  0  0  0
    3.5724   -2.8875    0.0000 C   0  0  0  0  0  0  0  0  0  0  0  0
    3.5724   -3.7125    0.0000 C   0  0  0  0  0  0  0  0  0  0  0  0
    2.8579   -4.1250    0.0000 C   0  0  0  0  0  0  0  0  0  0  0  0
    2.8579   -4.9500    0.0000 C   0  0  0  0  0  0  0  0  0  0  0  0
    2.8579   -5.7750    0.0000 F   0  0  0  0  0  0  0  0  0  0  0  0
    3.6829   -4.9500    0.0000 F   0  0  0  0  0  0  0  0  0  0  0  0
    2.0329   -4.9500    0.0000 F   0  0  0  0  0  0  0  0  0  0  0  0
    2.1434   -3.7125    0.0000 C   0  0  0  0  0  0  0  0  0  0  0  0
    2.1434   -2.8875    0.0000 C   0  0  0  0  0  0  0  0  0  0  0  0
    4.2868    0.0000    0.0000 C   0  0  0  0  0  0  0  0  0  0  0  0
    4.2868    0.8250    0.0000 C   0  0  0  0  0  0  0  0  0  0  0  0
    5.0013    1.2375    0.0000 C   0  0  0  0  0  0  0  0  0  0  0  0
    5.7158    0.8250    0.0000 C   0  0  0  0  0  0  0  0  0  0  0  0
    5.7158   -0.0000    0.0000 C   0  0  0  0  0  0  0  0  0  0  0  0
    5.0013   -0.4125    0.0000 O   0  0  0  0  0  0  0  0  0  0  0  0
  1  2  3  0  0  0  0
  2  3  1  0  0  0  0
  3  4  1  0  0  0  0
  4  5  2  0  0  0  0
  4  6  1  0  0  0  0
  6  7  1  0  0  0  0
  7  8  4  0  0  0  0
  8  9  4  0  0  0  0
  9 10  4  0  0  0  0
 10 11  1  0  0  0  0
 11 12  1  0  0  0  0
 11 13  1  0  0  0  0
 11 14  1  0  0  0  0
 10 15  4  0  0  0  0
 15 16  4  0  0  0  0
  7 16  4  0  0  0  0
  3 17  2  0  0  0  0
 17 18  1  0  0  0  0
 18 19  1  0  0  0  0
 19 20  1  0  0  0  0
 20 21  1  0  0  0  0
 21 22  1  0  0  0  0
 17 22  1  0  0  0  0
M  END
> <IC50(uM)>
50.0

> <Outcome>
0.0

> <BindingDB ID>
176944

> <BindingDB MonomerID>
85306

> <BindingDB Ligand Name>
Tetrahydropyranyl derivative, 8 (Z)

> <Curation/DataSource>
Curated from the literature by BindingDB

> <Article DOI>
?

> <PMID>
?

> <Patent Number>
?

> <Authors>
Papagergiou, C; Zurini, M; Weber, HP; Borer, X

> <Link to Ligand in BindingDB>
http://www.bindingdb.org/bind/chemsearch/marvin/MolStructure.jsp?monomerid=85306

> <Link to Ligand-Target Pair in BindingDB>
http://www.bindingdb.org/jsp/dbsearch/PrimarySearch_ki.jsp?energyterm=kJ/mole&tag=r21&monomerid=85306&enzyme=Dihydroorotate+dehydrogenase&column=ki&startPg=0&Increment=50&submit=Search

> <PubChem CID>
15363544

> <PubChem SID>
136351406

$$$$

  Mrv2115 07222212352D          

 20 21  0  0  0  0            999 V2000
    1.3222   -0.0616    0.0000 C   0  0  0  0  0  0  0  0  0  0  0  0
    2.0367   -0.4741    0.0000 C   0  0  0  0  0  0  0  0  0  0  0  0
    2.7512   -0.0616    0.0000 O   0  0  0  0  0  0  0  0  0  0  0  0
    2.0367   -1.2991    0.0000 C   0  0  0  0  0  0  0  0  0  0  0  0
    2.7041   -1.7840    0.0000 S   0  0  0  0  0  0  0  0  0  0  0  0
    2.4492   -2.5687    0.0000 C   0  0  0  0  0  0  0  0  0  0  0  0
    2.9341   -3.2361    0.0000 N   0  0  0  0  0  0  0  0  0  0  0  0
    2.5986   -3.9898    0.0000 C   0  0  0  0  0  0  0  0  0  0  0  0
    3.0835   -4.6572    0.0000 C   0  0  0  0  0  0  0  0  0  0  0  0
    2.7479   -5.4109    0.0000 C   0  0  0  0  0  0  0  0  0  0  0  0
    1.9275   -5.4971    0.0000 C   0  0  0  0  0  0  0  0  0  0  0  0
    1.5919   -6.2508    0.0000 C   0  0  0  0  0  0  0  0  0  0  0  0
    1.2563   -7.0045    0.0000 C   0  0  0  0  0  0  0  0  0  0  0  0
    0.8382   -5.9152    0.0000 C   0  0  0  0  0  0  0  0  0  0  0  0
    2.3456   -6.5863    0.0000 C   0  0  0  0  0  0  0  0  0  0  0  0
    1.4425   -4.8297    0.0000 C   0  0  0  0  0  0  0  0  0  0  0  0
    1.7781   -4.0760    0.0000 C   0  0  0  0  0  0  0  0  0  0  0  0
    1.6242   -2.5687    0.0000 N   0  0  0  0  0  0  0  0  0  0  0  0
    1.3693   -1.7840    0.0000 C   0  0  0  0  0  0  0  0  0  0  0  0
    0.5846   -1.5291    0.0000 C   0  0  0  0  0  0  0  0  0  0  0  0
  1  2  1  0  0  0  0
  2  3  2  0  0  0  0
  2  4  1  0  0  0  0
  4  5  4  0  0  0  0
  5  6  4  0  0  0  0
  6  7  1  0  0  0  0
  7  8  1  0  0  0  0
  8  9  4  0  0  0  0
  9 10  4  0  0  0  0
 10 11  4  0  0  0  0
 11 12  1  0  0  0  0
 12 13  1  0  0  0  0
 12 14  1  0  0  0  0
 12 15  1  0  0  0  0
 11 16  4  0  0  0  0
 16 17  4  0  0  0  0
  8 17  4  0  0  0  0
  6 18  4  0  0  0  0
 18 19  4  0  0  0  0
  4 19  4  0  0  0  0
 19 20  1  0  0  0  0
M  END
> <IC50(uM)>
3.649

> <Outcome>
0.0

> <BindingDB ID>
50312481

> <BindingDB MonomerID>
50071793

> <BindingDB Ligand Name>
CHEMBL3410571

> <Curation/DataSource>
ChEMBL

> <Article DOI>
10.1021/jm501127s

> <PMID>
25580811

> <Patent Number>
?

> <Authors>
Zhu, J; Han, L; Diao, Y; Ren, X; Xu, M; Xu, L; Li, S; Li, Q; Dong, D; Huang, J; Liu, X; Zhao, Z; Wang, R; Zhu, L; Xu, Y; Qian, X; Li, H

> <Link to Ligand in BindingDB>
http://www.bindingdb.org/bind/chemsearch/marvin/MolStructure.jsp?monomerid=50071793

> <Link to Ligand-Target Pair in BindingDB>
http://www.bindingdb.org/jsp/dbsearch/PrimarySearch_ki.jsp?energyterm=kJ/mole&tag=r21&monomerid=50071793&enzyme=Dihydroorotate+dehydrogenase&column=ki&startPg=0&Increment=50&submit=Search

> <PubChem CID>
118732492

> <PubChem SID>
103965503

$$$$

  Mrv2115 07222212352D          

 36 39  0  0  0  0            999 V2000
    0.5412   -5.1890    0.0000 C   0  0  0  0  0  0  0  0  0  0  0  0
    1.1543   -5.7410    0.0000 C   0  0  0  0  0  0  0  0  0  0  0  0
    1.9389   -5.4861    0.0000 N   0  0  0  0  0  0  0  0  0  0  0  0
    2.6063   -5.9710    0.0000 C   0  0  0  0  0  0  0  0  0  0  0  0
    2.6063   -6.7960    0.0000 C   0  0  0  0  0  0  0  0  0  0  0  0
    3.0188   -7.5105    0.0000 C   0  0  0  0  0  0  0  0  0  0  0  0
    2.1938   -7.5105    0.0000 C   0  0  0  0  0  0  0  0  0  0  0  0
    3.2738   -5.4861    0.0000 N   0  0  0  0  0  0  0  0  0  0  0  0
    3.0188   -4.7015    0.0000 N   0  0  0  0  0  0  0  0  0  0  0  0
    3.5038   -4.0340    0.0000 C   0  0  0  0  0  0  0  0  0  0  0  0
    3.1682   -3.2804    0.0000 C   0  0  0  0  0  0  0  0  0  0  0  0
    3.6531   -2.6129    0.0000 C   0  0  0  0  0  0  0  0  0  0  0  0
    3.3176   -1.8592    0.0000 O   0  0  0  0  0  0  0  0  0  0  0  0
    2.4971   -1.7730    0.0000 C   0  0  0  0  0  0  0  0  0  0  0  0
    2.0122   -2.4404    0.0000 C   0  0  0  0  0  0  0  0  0  0  0  0
    2.1615   -1.0193    0.0000 C   0  0  0  0  0  0  0  0  0  0  0  0
    2.9152   -0.6838    0.0000 F   0  0  0  0  0  0  0  0  0  0  0  0
    1.4079   -1.3549    0.0000 F   0  0  0  0  0  0  0  0  0  0  0  0
    1.8260   -0.2657    0.0000 F   0  0  0  0  0  0  0  0  0  0  0  0
    4.4736   -2.6992    0.0000 C   0  0  0  0  0  0  0  0  0  0  0  0
    4.9585   -2.0317    0.0000 C   0  0  0  0  0  0  0  0  0  0  0  0
    5.7790   -2.1180    0.0000 O   0  0  0  0  0  0  0  0  0  0  0  0
    4.6230   -1.2780    0.0000 N   0  0  0  0  0  0  0  0  0  0  0  0
    5.1079   -0.6106    0.0000 C   0  0  0  0  0  0  0  0  0  0  0  0
    4.7723    0.1431    0.0000 C   0  0  0  0  0  0  0  0  0  0  0  0
    3.9519    0.2293    0.0000 C   0  0  0  0  0  0  0  0  0  0  0  0
    5.2573    0.8105    0.0000 C   0  0  0  0  0  0  0  0  0  0  0  0
    6.0777    0.7243    0.0000 C   0  0  0  0  0  0  0  0  0  0  0  0
    6.4133   -0.0294    0.0000 C   0  0  0  0  0  0  0  0  0  0  0  0
    5.9284   -0.6968    0.0000 C   0  0  0  0  0  0  0  0  0  0  0  0
    6.2639   -1.4505    0.0000 F   0  0  0  0  0  0  0  0  0  0  0  0
    4.8092   -3.4528    0.0000 C   0  0  0  0  0  0  0  0  0  0  0  0
    4.3242   -4.1203    0.0000 C   0  0  0  0  0  0  0  0  0  0  0  0
    4.6598   -4.8739    0.0000 F   0  0  0  0  0  0  0  0  0  0  0  0
    2.1938   -4.7015    0.0000 C   0  0  0  0  0  0  0  0  0  0  0  0
    1.7089   -4.0340    0.0000 O   0  0  0  0  0  0  0  0  0  0  0  0
  1  2  1  0  0  0  0
  2  3  1  0  0  0  0
  3  4  4  0  0  0  0
  4  5  1  0  0  0  0
  5  6  1  0  0  0  0
  6  7  1  0  0  0  0
  5  7  1  0  0  0  0
  4  8  4  0  0  0  0
  8  9  4  0  0  0  0
  9 10  1  0  0  0  0
 10 11  4  0  0  0  0
 11 12  4  0  0  0  0
 12 13  1  0  0  0  0
 13 14  1  0  0  0  0
 14 15  1  0  0  0  0
 14 16  1  0  0  0  0
 16 17  1  0  0  0  0
 16 18  1  0  0  0  0
 16 19  1  0  0  0  0
 12 20  4  0  0  0  0
 20 21  1  0  0  0  0
 21 22  2  0  0  0  0
 21 23  1  0  0  0  0
 23 24  1  0  0  0  0
 24 25  4  0  0  0  0
 25 26  1  0  0  0  0
 25 27  4  0  0  0  0
 27 28  4  0  0  0  0
 28 29  4  0  0  0  0
 29 30  4  0  0  0  0
 24 30  4  0  0  0  0
 30 31  1  0  0  0  0
 20 32  4  0  0  0  0
 32 33  4  0  0  0  0
 10 33  4  0  0  0  0
 33 34  1  0  0  0  0
  9 35  4  0  0  0  0
  3 35  4  0  0  0  0
 35 36  2  0  0  0  0
M  END
> <IC50(uM)>
0.00605

> <Outcome>
1.0

> <BindingDB ID>
1098674; 972520

> <BindingDB MonomerID>
470395

> <BindingDB Ligand Name>
4-(3-cyclopropyl-4-ethyl-5-oxo-4,5-dihydro-1H-1,2,4-triazol-1-yl)-5-fluoro-N-(2-fluoro-6-methyl-phenyl)-2-{[(2S)-1,1,1-trifluoropropan-2-yl]oxy}benzamide::US10815215, Example 54::US11130745, Example 54; 4-(3-cyclopropyl-4-ethyl-5-oxo-4,5-dihydro-1H-1,2,4-triazol-1-yl)-5-fluoro-N-(2-fluoro-6-methyl-phenyl)-2-{[(2S)-1,1,1-trifluoropropan-2-yl]oxy}benzamide::US10815215, Example 54

> <Curation/DataSource>
US Patent

> <Article DOI>
?

> <PMID>
?

> <Patent Number>
US11130745; US10815215

> <Authors>
Gradl, SN; Nguyen, D; Eis, K; Gunther, J; Stellfeld, T; Janzer, A; Christian, S; Muller, T; Sheikh, SE; Sykes, DB; Ferrara, SJ; Krober, M; Merz, C; Niehues, M; Schafer, M; Zimmermann, K; Nising, CF; Gradl, SN; Nguyen, D; Eis, K; Gunther, J; Stellfeld, T; Janzer, A; Christian, S; Muller, T; Sheikh, SE; Zhou, HJ; Zhao, C; Sykes, DB; Ferrara, SJ; Liu, K; Krober, M; Merz, C; Niehues, M; Schafer, M; Zimmermann, K; Nising, CF

> <Link to Ligand in BindingDB>
http://www.bindingdb.org/bind/chemsearch/marvin/MolStructure.jsp?monomerid=470395

> <Link to Ligand-Target Pair in BindingDB>
http://www.bindingdb.org/jsp/dbsearch/PrimarySearch_ki.jsp?energyterm=kJ/mole&tag=r21&monomerid=470395&enzyme=Dihydroorotate+dehydrogenase&column=ki&startPg=0&Increment=50&submit=Search

> <PubChem CID>
134469778

> <PubChem SID>
441609572

$$$$

  Mrv2115 07222212352D          

 26 29  0  0  0  0            999 V2000
    2.1434   -3.7125    0.0000 C   0  0  0  0  0  0  0  0  0  0  0  0
    2.1434   -2.8875    0.0000 O   0  0  0  0  0  0  0  0  0  0  0  0
    1.4289   -2.4750    0.0000 C   0  0  0  0  0  0  0  0  0  0  0  0
    0.7145   -2.8875    0.0000 O   0  0  0  0  0  0  0  0  0  0  0  0
    1.4289   -1.6500    0.0000 C   0  0  0  0  0  0  0  0  0  0  0  0
    0.7145   -1.2375    0.0000 C   0  0  0  0  0  0  0  0  0  0  0  0
    0.7145   -0.4125    0.0000 C   0  0  0  0  0  0  0  0  0  0  0  0
    0.0000    0.0000    0.0000 C   0  0  0  0  0  0  0  0  0  0  0  0
   -0.7145   -0.4125    0.0000 C   0  0  0  0  0  0  0  0  0  0  0  0
   -1.4289    0.0000    0.0000 C   0  0  0  0  0  0  0  0  0  0  0  0
   -1.4289    0.8250    0.0000 C   0  0  0  0  0  0  0  0  0  0  0  0
   -2.1434    1.2375    0.0000 N   0  0  0  0  0  0  0  0  0  0  0  0
   -2.8579    0.8250    0.0000 C   0  0  0  0  0  0  0  0  0  0  0  0
   -3.5724    1.2375    0.0000 C   0  0  0  0  0  0  0  0  0  0  0  0
   -3.5724    2.0625    0.0000 C   0  0  0  0  0  0  0  0  0  0  0  0
   -2.8579    2.4750    0.0000 C   0  0  0  0  0  0  0  0  0  0  0  0
   -2.1434    2.0625    0.0000 C   0  0  0  0  0  0  0  0  0  0  0  0
   -0.7145    1.2375    0.0000 C   0  0  0  0  0  0  0  0  0  0  0  0
    0.0000    0.8250    0.0000 C   0  0  0  0  0  0  0  0  0  0  0  0
    1.4289    0.0000    0.0000 N   0  0  0  0  0  0  0  0  0  0  0  0
    2.1434   -0.4125    0.0000 C   0  0  0  0  0  0  0  0  0  0  0  0
    2.8579    0.0000    0.0000 C   0  0  0  0  0  0  0  0  0  0  0  0
    3.5724   -0.4125    0.0000 C   0  0  0  0  0  0  0  0  0  0  0  0
    3.5724   -1.2375    0.0000 C   0  0  0  0  0  0  0  0  0  0  0  0
    2.8579   -1.6500    0.0000 C   0  0  0  0  0  0  0  0  0  0  0  0
    2.1434   -1.2375    0.0000 C   0  0  0  0  0  0  0  0  0  0  0  0
  1  2  1  0  0  0  0
  2  3  1  0  0  0  0
  3  4  2  0  0  0  0
  3  5  1  0  0  0  0
  5  6  4  0  0  0  0
  6  7  4  0  0  0  0
  7  8  1  0  0  0  0
  8  9  4  0  0  0  0
  9 10  4  0  0  0  0
 10 11  4  0  0  0  0
 11 12  1  0  0  0  0
 12 13  1  0  0  0  0
 13 14  1  0  0  0  0
 14 15  1  0  0  0  0
 15 16  1  0  0  0  0
 16 17  1  0  0  0  0
 12 17  1  0  0  0  0
 11 18  4  0  0  0  0
 18 19  4  0  0  0  0
  8 19  4  0  0  0  0
  7 20  4  0  0  0  0
 20 21  4  0  0  0  0
 21 22  4  0  0  0  0
 22 23  4  0  0  0  0
 23 24  4  0  0  0  0
 24 25  4  0  0  0  0
 25 26  4  0  0  0  0
  5 26  4  0  0  0  0
 21 26  4  0  0  0  0
M  END
> <IC50(uM)>
200.0

> <Outcome>
0.0

> <BindingDB ID>
51126197

> <BindingDB MonomerID>
50461883

> <BindingDB Ligand Name>
CHEMBL4227966

> <Curation/DataSource>
ChEMBL

> <Article DOI>
10.1021/acs.jmedchem.7b01862

> <PMID>
29727569

> <Patent Number>
?

> <Authors>
Madak, JT; Cuthbertson, CR; Miyata, Y; Tamura, S; Petrunak, EM; Stuckey, JA; Han, Y; He, M; Sun, D; Showalter, HD; Neamati, N

> <Link to Ligand in BindingDB>
http://www.bindingdb.org/bind/chemsearch/marvin/MolStructure.jsp?monomerid=50461883

> <Link to Ligand-Target Pair in BindingDB>
http://www.bindingdb.org/jsp/dbsearch/PrimarySearch_ki.jsp?energyterm=kJ/mole&tag=r21&monomerid=50461883&enzyme=Dihydroorotate+dehydrogenase&column=ki&startPg=0&Increment=50&submit=Search

> <PubChem CID>
145970932

> <PubChem SID>
433929148

$$$$

  Mrv2115 07222212352D          

 35 37  0  0  0  0            999 V2000
   -2.1434    8.4161    0.0000 C   0  0  0  0  0  0  0  0  0  0  0  0
   -1.4289    8.0036    0.0000 O   0  0  0  0  0  0  0  0  0  0  0  0
   -0.7145    8.4161    0.0000 C   0  0  0  0  0  0  0  0  0  0  0  0
   -0.7145    9.2411    0.0000 N   0  0  0  0  0  0  0  0  0  0  0  0
   -0.0000    9.6536    0.0000 C   0  0  0  0  0  0  0  0  0  0  0  0
    0.7145    9.2411    0.0000 C   0  0  0  0  0  0  0  0  0  0  0  0
    0.7145    8.4161    0.0000 C   0  0  0  0  0  0  0  0  0  0  0  0
    1.4289    8.0036    0.0000 C   0  0  0  0  0  0  0  0  0  0  0  0
   -0.0000    8.0036    0.0000 C   0  0  0  0  0  0  0  0  0  0  0  0
   -0.0000    7.1786    0.0000 N   0  0  0  0  0  0  0  0  0  0  0  0
    0.7145    6.7661    0.0000 C   0  0  0  0  0  0  0  0  0  0  0  0
    1.4289    7.1786    0.0000 O   0  0  0  0  0  0  0  0  0  0  0  0
    0.7145    5.9411    0.0000 C   0  0  0  0  0  0  0  0  0  0  0  0
    1.4289    5.5286    0.0000 C   0  0  0  0  0  0  0  0  0  0  0  0
    1.4289    4.7036    0.0000 C   0  0  0  0  0  0  0  0  0  0  0  0
    2.1434    4.2911    0.0000 F   0  0  0  0  0  0  0  0  0  0  0  0
    0.7145    4.2911    0.0000 C   0  0  0  0  0  0  0  0  0  0  0  0
    0.7145    3.4661    0.0000 N   0  0  0  0  0  0  0  0  0  0  0  0
    0.0470    2.9812    0.0000 N   0  0  0  0  0  0  0  0  0  0  0  0
    0.3020    2.1965    0.0000 C   0  0  0  0  0  0  0  0  0  0  0  0
   -0.1830    1.5291    0.0000 C   0  0  0  0  0  0  0  0  0  0  0  0
    0.1526    0.7754    0.0000 O   0  0  0  0  0  0  0  0  0  0  0  0
    1.1270    2.1965    0.0000 N   0  0  0  0  0  0  0  0  0  0  0  0
    1.6119    1.5291    0.0000 C   0  0  0  0  0  0  0  0  0  0  0  0
    1.3819    2.9812    0.0000 C   0  0  0  0  0  0  0  0  0  0  0  0
    2.1665    3.2361    0.0000 O   0  0  0  0  0  0  0  0  0  0  0  0
    0.0000    4.7036    0.0000 C   0  0  0  0  0  0  0  0  0  0  0  0
   -0.0000    5.5286    0.0000 C   0  0  0  0  0  0  0  0  0  0  0  0
   -0.7145    5.9411    0.0000 O   0  0  0  0  0  0  0  0  0  0  0  0
   -1.4289    5.5286    0.0000 C   0  0  0  0  0  0  0  0  0  0  0  0
   -1.4289    4.7036    0.0000 C   0  0  0  0  0  0  0  0  0  0  0  0
   -2.1434    5.9411    0.0000 C   0  0  0  0  0  0  0  0  0  0  0  0
   -1.7309    6.6555    0.0000 F   0  0  0  0  0  0  0  0  0  0  0  0
   -2.5559    5.2266    0.0000 F   0  0  0  0  0  0  0  0  0  0  0  0
   -2.8579    6.3536    0.0000 F   0  0  0  0  0  0  0  0  0  0  0  0
  1  2  1  0  0  0  0
  2  3  1  0  0  0  0
  3  4  4  0  0  0  0
  4  5  4  0  0  0  0
  5  6  4  0  0  0  0
  6  7  4  0  0  0  0
  7  8  1  0  0  0  0
  7  9  4  0  0  0  0
  3  9  4  0  0  0  0
  9 10  1  0  0  0  0
 10 11  1  0  0  0  0
 11 12  2  0  0  0  0
 11 13  1  0  0  0  0
 13 14  4  0  0  0  0
 14 15  4  0  0  0  0
 15 16  1  0  0  0  0
 15 17  4  0  0  0  0
 17 18  1  0  0  0  0
 18 19  4  0  0  0  0
 19 20  4  0  0  0  0
 20 21  1  0  0  0  0
 21 22  1  0  0  0  0
 20 23  4  0  0  0  0
 23 24  1  0  0  0  0
 23 25  4  0  0  0  0
 18 25  4  0  0  0  0
 25 26  2  0  0  0  0
 17 27  4  0  0  0  0
 27 28  4  0  0  0  0
 13 28  4  0  0  0  0
 28 29  1  0  0  0  0
 29 30  1  0  0  0  0
 30 31  1  0  0  0  0
 30 32  1  0  0  0  0
 32 33  1  0  0  0  0
 32 34  1  0  0  0  0
 32 35  1  0  0  0  0
M  END
> <IC50(uM)>
0.08

> <Outcome>
1.0

> <BindingDB ID>
1098735; 972581

> <BindingDB MonomerID>
470457

> <BindingDB Ligand Name>
5-fluoro-4-[3-(hydroxymethyl)-4-methyl-5-oxo-4,5-dihydro-1H-1,2,4-triazol-1-yl]-N-(2-methoxy-4-methylpyridin-3-yl)-2-{[(2S)-1,1,1-trifluoropropan-2-yl]oxy}benzamide::US10815215, Example 123::US11130745, Example 123; 5-fluoro-4-[3-(hydroxymethyl)-4-methyl-5-oxo-4,5-dihydro-1H-1,2,4-triazol-1-yl]-N-(2-methoxy-4-methylpyridin-3-yl)-2-{[(2S)-1,1,1-trifluoropropan-2-yl]oxy}benzamide::US10815215, Example 123

> <Curation/DataSource>
US Patent

> <Article DOI>
?

> <PMID>
?

> <Patent Number>
US11130745; US10815215

> <Authors>
Gradl, SN; Nguyen, D; Eis, K; Gunther, J; Stellfeld, T; Janzer, A; Christian, S; Muller, T; Sheikh, SE; Sykes, DB; Ferrara, SJ; Krober, M; Merz, C; Niehues, M; Schafer, M; Zimmermann, K; Nising, CF; Gradl, SN; Nguyen, D; Eis, K; Gunther, J; Stellfeld, T; Janzer, A; Christian, S; Muller, T; Sheikh, SE; Zhou, HJ; Zhao, C; Sykes, DB; Ferrara, SJ; Liu, K; Krober, M; Merz, C; Niehues, M; Schafer, M; Zimmermann, K; Nising, CF

> <Link to Ligand in BindingDB>
http://www.bindingdb.org/bind/chemsearch/marvin/MolStructure.jsp?monomerid=470457

> <Link to Ligand-Target Pair in BindingDB>
http://www.bindingdb.org/jsp/dbsearch/PrimarySearch_ki.jsp?energyterm=kJ/mole&tag=r21&monomerid=470457&enzyme=Dihydroorotate+dehydrogenase&column=ki&startPg=0&Increment=50&submit=Search

> <PubChem CID>
134469912

> <PubChem SID>
441609634

$$$$

  Mrv2115 07222212352D          

 22 24  0  0  0  0            999 V2000
    4.7812    1.9354    0.0000 C   0  0  0  0  0  0  0  0  0  0  0  0
    4.0668    2.3479    0.0000 C   0  0  0  0  0  0  0  0  0  0  0  0
    3.3523    1.9354    0.0000 C   0  0  0  0  0  0  0  0  0  0  0  0
    3.3523    1.1104    0.0000 C   0  0  0  0  0  0  0  0  0  0  0  0
    4.0668    0.6979    0.0000 C   0  0  0  0  0  0  0  0  0  0  0  0
    2.6378    0.6979    0.0000 N   0  0  0  0  0  0  0  0  0  0  0  0
    1.9233    1.1104    0.0000 C   0  0  0  0  0  0  0  0  0  0  0  0
    1.1387    0.8555    0.0000 N   0  0  0  0  0  0  0  0  0  0  0  0
    0.6538    1.5229    0.0000 C   0  0  0  0  0  0  0  0  0  0  0  0
    1.1387    2.1904    0.0000 N   0  0  0  0  0  0  0  0  0  0  0  0
    1.9233    1.9354    0.0000 N   0  0  0  0  0  0  0  0  0  0  0  0
    2.6378    2.3479    0.0000 C   0  0  0  0  0  0  0  0  0  0  0  0
    2.6378    3.1729    0.0000 N   0  0  0  0  0  0  0  0  0  0  0  0
    3.3523    3.5854    0.0000 C   0  0  0  0  0  0  0  0  0  0  0  0
    3.3523    4.4104    0.0000 C   0  0  0  0  0  0  0  0  0  0  0  0
    4.0668    4.8229    0.0000 C   0  0  0  0  0  0  0  0  0  0  0  0
    4.7812    4.4104    0.0000 C   0  0  0  0  0  0  0  0  0  0  0  0
    5.4957    4.8229    0.0000 C   0  0  0  0  0  0  0  0  0  0  0  0
    5.4957    5.6479    0.0000 C   0  0  0  0  0  0  0  0  0  0  0  0
    6.2102    4.4104    0.0000 C   0  0  0  0  0  0  0  0  0  0  0  0
    4.7812    3.5854    0.0000 C   0  0  0  0  0  0  0  0  0  0  0  0
    4.0668    3.1729    0.0000 C   0  0  0  0  0  0  0  0  0  0  0  0
  1  2  1  0  0  0  0
  2  3  1  0  0  0  0
  3  4  4  0  0  0  0
  4  5  1  0  0  0  0
  4  6  4  0  0  0  0
  6  7  4  0  0  0  0
  7  8  4  0  0  0  0
  8  9  4  0  0  0  0
  9 10  4  0  0  0  0
 10 11  4  0  0  0  0
  7 11  4  0  0  0  0
 11 12  4  0  0  0  0
  3 12  4  0  0  0  0
 12 13  1  0  0  0  0
 13 14  1  0  0  0  0
 14 15  4  0  0  0  0
 15 16  4  0  0  0  0
 16 17  4  0  0  0  0
 17 18  1  0  0  0  0
 18 19  1  0  0  0  0
 18 20  1  0  0  0  0
 17 21  4  0  0  0  0
 21 22  4  0  0  0  0
 14 22  4  0  0  0  0
M  END
> <IC50(uM)>
100.0

> <Outcome>
0.0

> <BindingDB ID>
50643200

> <BindingDB MonomerID>
50345437

> <BindingDB Ligand Name>
6-ethyl-N-(4-isopropylphenyl)-5-methyl-[1,2,4]triazolo[1,5-a]pyrimidin-7-amine::CHEMBL1784714::US9238653, Table 5, Compound 8

> <Curation/DataSource>
ChEMBL

> <Article DOI>
10.1021/jm200265b

> <PMID>
21517059

> <Patent Number>
?

> <Authors>
Gujjar, R; El Mazouni, F; White, KL; White, J; Creason, S; Shackleford, DM; Deng, X; Charman, WN; Bathurst, I; Burrows, J; Floyd, DM; Matthews, D; Buckner, FS; Charman, SA; Phillips, MA; Rathod, PK

> <Link to Ligand in BindingDB>
http://www.bindingdb.org/bind/chemsearch/marvin/MolStructure.jsp?monomerid=50345437

> <Link to Ligand-Target Pair in BindingDB>
http://www.bindingdb.org/jsp/dbsearch/PrimarySearch_ki.jsp?energyterm=kJ/mole&tag=r21&monomerid=50345437&enzyme=Dihydroorotate+dehydrogenase&column=ki&startPg=0&Increment=50&submit=Search

> <PubChem CID>
22577320

> <PubChem SID>
131348373

$$$$

  Mrv2115 07222212352D          

 29 32  0  0  0  0            999 V2000
   -1.8212    2.1599    0.0000 C   0  0  0  0  0  0  0  0  0  0  0  0
   -1.4087    1.4455    0.0000 C   0  0  0  0  0  0  0  0  0  0  0  0
   -0.5837    1.4455    0.0000 O   0  0  0  0  0  0  0  0  0  0  0  0
   -1.8212    0.7310    0.0000 N   0  0  0  0  0  0  0  0  0  0  0  0
   -1.4087    0.0165    0.0000 C   0  0  0  0  0  0  0  0  0  0  0  0
   -0.5837    0.0165    0.0000 C   0  0  0  0  0  0  0  0  0  0  0  0
   -0.1712   -0.6979    0.0000 C   0  0  0  0  0  0  0  0  0  0  0  0
    0.6538   -0.6979    0.0000 C   0  0  0  0  0  0  0  0  0  0  0  0
    1.1387   -0.0305    0.0000 N   0  0  0  0  0  0  0  0  0  0  0  0
    1.9233   -0.2854    0.0000 C   0  0  0  0  0  0  0  0  0  0  0  0
    2.6378    0.1271    0.0000 C   0  0  0  0  0  0  0  0  0  0  0  0
    2.6378    0.9521    0.0000 C   0  0  0  0  0  0  0  0  0  0  0  0
    3.3523    1.3646    0.0000 O   0  0  0  0  0  0  0  0  0  0  0  0
    1.9233    1.3646    0.0000 O   0  0  0  0  0  0  0  0  0  0  0  0
    3.3523   -0.2854    0.0000 C   0  0  0  0  0  0  0  0  0  0  0  0
    3.3523   -1.1104    0.0000 C   0  0  0  0  0  0  0  0  0  0  0  0
    4.0668   -1.5229    0.0000 C   0  0  0  0  0  0  0  0  0  0  0  0
    2.6378   -1.5229    0.0000 C   0  0  0  0  0  0  0  0  0  0  0  0
    1.9233   -1.1104    0.0000 C   0  0  0  0  0  0  0  0  0  0  0  0
    1.1387   -1.3654    0.0000 N   0  0  0  0  0  0  0  0  0  0  0  0
   -0.5837   -1.4124    0.0000 C   0  0  0  0  0  0  0  0  0  0  0  0
   -1.4087   -1.4124    0.0000 C   0  0  0  0  0  0  0  0  0  0  0  0
   -1.8212   -0.6979    0.0000 C   0  0  0  0  0  0  0  0  0  0  0  0
   -2.6462   -0.6979    0.0000 C   0  0  0  0  0  0  0  0  0  0  0  0
   -3.0587   -1.4124    0.0000 C   0  0  0  0  0  0  0  0  0  0  0  0
   -3.8837   -1.4124    0.0000 C   0  0  0  0  0  0  0  0  0  0  0  0
   -4.2962   -0.6979    0.0000 C   0  0  0  0  0  0  0  0  0  0  0  0
   -3.8837    0.0165    0.0000 C   0  0  0  0  0  0  0  0  0  0  0  0
   -3.0587    0.0165    0.0000 C   0  0  0  0  0  0  0  0  0  0  0  0
  1  2  1  0  0  0  0
  2  3  2  0  0  0  0
  2  4  1  0  0  0  0
  4  5  1  0  0  0  0
  5  6  4  0  0  0  0
  6  7  4  0  0  0  0
  7  8  1  0  0  0  0
  8  9  4  0  0  0  0
  9 10  4  0  0  0  0
 10 11  4  0  0  0  0
 11 12  1  0  0  0  0
 12 13  2  0  0  0  0
 12 14  1  0  0  0  0
 11 15  4  0  0  0  0
 15 16  4  0  0  0  0
 16 17  1  0  0  0  0
 16 18  4  0  0  0  0
 18 19  4  0  0  0  0
 10 19  4  0  0  0  0
 19 20  4  0  0  0  0
  8 20  4  0  0  0  0
  7 21  4  0  0  0  0
 21 22  4  0  0  0  0
 22 23  4  0  0  0  0
  5 23  4  0  0  0  0
 23 24  1  0  0  0  0
 24 25  4  0  0  0  0
 25 26  4  0  0  0  0
 26 27  4  0  0  0  0
 27 28  4  0  0  0  0
 28 29  4  0  0  0  0
 24 29  4  0  0  0  0
M  STY  1   1 DAT
M  SAL   1  1  20
M  SDT   1 MRV_IMPLICIT_H                                        
M  SDD   1     0.5304   -0.4125    DR    ALL  0       0  
M  SED   1 IMPL_H1
M  END
> <IC50(uM)>
47.0

> <Outcome>
0.0

> <BindingDB ID>
50358209

> <BindingDB MonomerID>
50096201

> <BindingDB Ligand Name>
CHEMBL3593807

> <Curation/DataSource>
ChEMBL

> <Article DOI>
10.1016/j.bmc.2015.05.051

> <PMID>
26088338

> <Patent Number>
?

> <Authors>
Abdullah, I; Chee, CF; Lee, YK; Thunuguntla, SS; Satish Reddy, K; Nellore, K; Antony, T; Verma, J; Mun, KW; Othman, S; Subramanya, H; Rahman, NA

> <Link to Ligand in BindingDB>
http://www.bindingdb.org/bind/chemsearch/marvin/MolStructure.jsp?monomerid=50096201

> <Link to Ligand-Target Pair in BindingDB>
http://www.bindingdb.org/jsp/dbsearch/PrimarySearch_ki.jsp?energyterm=kJ/mole&tag=r21&monomerid=50096201&enzyme=Dihydroorotate+dehydrogenase&column=ki&startPg=0&Increment=50&submit=Search

> <PubChem CID>
122182182

> <PubChem SID>
103993768

$$$$

  Mrv2115 07222212352D          

 27 29  0  0  0  0            999 V2000
   -1.4087    0.0165    0.0000 C   0  0  0  0  0  0  0  0  0  0  0  0
   -0.5837    0.0165    0.0000 C   0  0  0  0  0  0  0  0  0  0  0  0
   -0.1712   -0.6979    0.0000 C   0  0  0  0  0  0  0  0  0  0  0  0
   -0.5837   -1.4124    0.0000 C   0  0  0  0  0  0  0  0  0  0  0  0
    0.6538   -0.6979    0.0000 C   0  0  0  0  0  0  0  0  0  0  0  0
    1.1387   -0.0305    0.0000 N   0  0  0  0  0  0  0  0  0  0  0  0
    1.9233   -0.2854    0.0000 C   0  0  0  0  0  0  0  0  0  0  0  0
    2.6378    0.1271    0.0000 N   0  0  0  0  0  0  0  0  0  0  0  0
    3.3523   -0.2854    0.0000 C   0  0  0  0  0  0  0  0  0  0  0  0
    4.0668    0.1271    0.0000 C   0  0  0  0  0  0  0  0  0  0  0  0
    3.3523   -1.1104    0.0000 C   0  0  0  0  0  0  0  0  0  0  0  0
    2.6378   -1.5229    0.0000 C   0  0  0  0  0  0  0  0  0  0  0  0
    2.6378   -2.3479    0.0000 N   0  0  0  0  0  0  0  0  0  0  0  0
    1.9233   -2.7604    0.0000 C   0  0  0  0  0  0  0  0  0  0  0  0
    1.9233   -3.5854    0.0000 C   0  0  0  0  0  0  0  0  0  0  0  0
    1.2089   -3.9979    0.0000 C   0  0  0  0  0  0  0  0  0  0  0  0
    0.4944   -3.5854    0.0000 C   0  0  0  0  0  0  0  0  0  0  0  0
   -0.2201   -3.9979    0.0000 S   0  0  0  0  0  0  0  0  0  0  0  0
   -0.9345   -4.4104    0.0000 F   0  0  0  0  0  0  0  0  0  0  0  0
   -0.2201   -4.8229    0.0000 F   0  0  0  0  0  0  0  0  0  0  0  0
    0.4944   -4.4104    0.0000 F   0  0  0  0  0  0  0  0  0  0  0  0
   -0.2201   -3.1729    0.0000 F   0  0  0  0  0  0  0  0  0  0  0  0
   -0.9345   -3.5854    0.0000 F   0  0  0  0  0  0  0  0  0  0  0  0
    0.4944   -2.7604    0.0000 C   0  0  0  0  0  0  0  0  0  0  0  0
    1.2089   -2.3479    0.0000 C   0  0  0  0  0  0  0  0  0  0  0  0
    1.9233   -1.1104    0.0000 N   0  0  0  0  0  0  0  0  0  0  0  0
    1.1387   -1.3654    0.0000 N   0  0  0  0  0  0  0  0  0  0  0  0
  1  2  1  0  0  0  0
  2  3  1  0  0  0  0
  3  4  1  0  0  0  0
  3  5  1  0  0  0  0
  5  6  4  0  0  0  0
  6  7  4  0  0  0  0
  7  8  4  0  0  0  0
  8  9  4  0  0  0  0
  9 10  1  0  0  0  0
  9 11  4  0  0  0  0
 11 12  4  0  0  0  0
 12 13  1  0  0  0  0
 13 14  1  0  0  0  0
 14 15  4  0  0  0  0
 15 16  4  0  0  0  0
 16 17  4  0  0  0  0
 17 18  1  0  0  0  0
 18 19  1  0  0  0  0
 18 20  1  0  0  0  0
 18 21  1  0  0  0  0
 18 22  1  0  0  0  0
 18 23  1  0  0  0  0
 17 24  4  0  0  0  0
 24 25  4  0  0  0  0
 14 25  4  0  0  0  0
 12 26  4  0  0  0  0
  7 26  4  0  0  0  0
 26 27  4  0  0  0  0
  5 27  4  0  0  0  0
M  END
> <IC50(uM)>
100.0

> <Outcome>
0.0

> <BindingDB ID>
50720167

> <BindingDB MonomerID>
50365237

> <BindingDB Ligand Name>
CHEMBL1956275

> <Curation/DataSource>
ChEMBL

> <Article DOI>
10.1021/jm200592f

> <PMID>
21696174

> <Patent Number>
?

> <Authors>
Coteron, JM; Marco, M; Esquivias, J; Deng, X; White, KL; White, J; Koltun, M; El Mazouni, F; Kokkonda, S; Katneni, K; Bhamidipati, R; Shackleford, DM; Angulo-Barturen, I; Ferrer, SB; Jimenez-Diaz, MB; Gamo, FJ; Goldsmith, EJ; Charman, WN; Bathurst, I; Floyd, D; Matthews, D; Burrows, JN; Rathod, PK; Charman, SA; Phillips, MA

> <Link to Ligand in BindingDB>
http://www.bindingdb.org/bind/chemsearch/marvin/MolStructure.jsp?monomerid=50365237

> <Link to Ligand-Target Pair in BindingDB>
http://www.bindingdb.org/jsp/dbsearch/PrimarySearch_ki.jsp?energyterm=kJ/mole&tag=r21&monomerid=50365237&enzyme=Dihydroorotate+dehydrogenase&column=ki&startPg=0&Increment=50&submit=Search

> <PubChem CID>
53392618

> <PubChem SID>
136969299

$$$$

  Mrv2115 07222212352D          

 24 25  0  0  0  0            999 V2000
    2.0367   -0.4741    0.0000 C   0  0  0  0  0  0  0  0  0  0  0  0
    2.0367   -1.2991    0.0000 C   0  0  0  0  0  0  0  0  0  0  0  0
    2.7041   -1.7840    0.0000 C   0  0  0  0  0  0  0  0  0  0  0  0
    3.4888   -1.5291    0.0000 C   0  0  0  0  0  0  0  0  0  0  0  0
    4.1019   -2.0811    0.0000 C   0  0  0  0  0  0  0  0  0  0  0  0
    4.8865   -1.8262    0.0000 C   0  0  0  0  0  0  0  0  0  0  0  0
    5.4996   -2.3782    0.0000 C   0  0  0  0  0  0  0  0  0  0  0  0
    5.3281   -3.1852    0.0000 C   0  0  0  0  0  0  0  0  0  0  0  0
    5.9411   -3.7372    0.0000 C   0  0  0  0  0  0  0  0  0  0  0  0
    6.5542   -4.2893    0.0000 F   0  0  0  0  0  0  0  0  0  0  0  0
    6.4932   -3.1241    0.0000 F   0  0  0  0  0  0  0  0  0  0  0  0
    5.3891   -4.3503    0.0000 F   0  0  0  0  0  0  0  0  0  0  0  0
    4.5434   -3.4401    0.0000 N   0  0  0  0  0  0  0  0  0  0  0  0
    3.9303   -2.8881    0.0000 C   0  0  0  0  0  0  0  0  0  0  0  0
    2.4492   -2.5687    0.0000 C   0  0  0  0  0  0  0  0  0  0  0  0
    1.6242   -2.5687    0.0000 N   0  0  0  0  0  0  0  0  0  0  0  0
    1.3693   -1.7840    0.0000 C   0  0  0  0  0  0  0  0  0  0  0  0
    0.5846   -1.5291    0.0000 C   0  0  0  0  0  0  0  0  0  0  0  0
   -0.0284   -2.0811    0.0000 O   0  0  0  0  0  0  0  0  0  0  0  0
    0.4131   -0.7221    0.0000 N   0  0  0  0  0  0  0  0  0  0  0  0
   -0.3715   -0.4672    0.0000 C   0  0  0  0  0  0  0  0  0  0  0  0
   -1.1561   -0.2122    0.0000 C   0  0  0  0  0  0  0  0  0  0  0  0
   -0.1166    0.3174    0.0000 C   0  0  0  0  0  0  0  0  0  0  0  0
   -0.6264   -1.2518    0.0000 C   0  0  0  0  0  0  0  0  0  0  0  0
  1  2  1  0  0  0  0
  2  3  4  0  0  0  0
  3  4  1  0  0  0  0
  4  5  1  0  0  0  0
  5  6  4  0  0  0  0
  6  7  4  0  0  0  0
  7  8  4  0  0  0  0
  8  9  1  0  0  0  0
  9 10  1  0  0  0  0
  9 11  1  0  0  0  0
  9 12  1  0  0  0  0
  8 13  4  0  0  0  0
 13 14  4  0  0  0  0
  5 14  4  0  0  0  0
  3 15  4  0  0  0  0
 15 16  4  0  0  0  0
 16 17  4  0  0  0  0
  2 17  4  0  0  0  0
 17 18  1  0  0  0  0
 18 19  2  0  0  0  0
 18 20  1  0  0  0  0
 20 21  1  0  0  0  0
 21 22  1  0  0  0  0
 21 23  1  0  0  0  0
 21 24  1  0  0  0  0
M  STY  1   1 DAT
M  SAL   1  1  16
M  SDT   1 MRV_IMPLICIT_H                                        
M  SDD   1     0.5304   -0.4125    DR    ALL  0       0  
M  SED   1 IMPL_H1
M  END
> <IC50(uM)>
100.0

> <Outcome>
0.0

> <BindingDB ID>
51330100

> <BindingDB MonomerID>
50538348

> <BindingDB Ligand Name>
CHEMBL4641948

> <Curation/DataSource>
ChEMBL

> <Article DOI>
10.1021/acs.jmedchem.0c00311

> <PMID>
32248693

> <Patent Number>
?

> <Authors>
Kokkonda, S; Deng, X; White, KL; El Mazouni, F; White, J; Shackleford, DM; Katneni, K; Chiu, FCK; Barker, H; McLaren, J; Crighton, E; Chen, G; Angulo-Barturen, I; Jimenez-Diaz, MB; Ferrer, S; Huertas-Valentin, L; Martinez-Martinez, MS; Lafuente-Monasterio, MJ; Chittimalla, R; Shahi, SP; Wittlin, S; Waterson, D; Burrows, JN; Matthews, D; Tomchick, D; Rathod, PK; Palmer, MJ; Charman, SA; Phillips, MA

> <Link to Ligand in BindingDB>
http://www.bindingdb.org/bind/chemsearch/marvin/MolStructure.jsp?monomerid=50538348

> <Link to Ligand-Target Pair in BindingDB>
http://www.bindingdb.org/jsp/dbsearch/PrimarySearch_ki.jsp?energyterm=kJ/mole&tag=r21&monomerid=50538348&enzyme=Dihydroorotate+dehydrogenase&column=ki&startPg=0&Increment=50&submit=Search

> <PubChem CID>
156016780

> <PubChem SID>
442139911

$$$$

  Mrv2115 07222212352D          

 28 32  0  0  0  0            999 V2000
   -4.9882    2.4939    0.0000 C   0  0  0  0  0  0  0  0  0  0  0  0
   -4.6527    3.2476    0.0000 C   0  0  0  0  0  0  0  0  0  0  0  0
   -5.1376    3.9151    0.0000 C   0  0  0  0  0  0  0  0  0  0  0  0
   -4.8020    4.6687    0.0000 C   0  0  0  0  0  0  0  0  0  0  0  0
   -3.9816    4.7550    0.0000 C   0  0  0  0  0  0  0  0  0  0  0  0
   -3.4966    4.0875    0.0000 C   0  0  0  0  0  0  0  0  0  0  0  0
   -3.8322    3.3339    0.0000 C   0  0  0  0  0  0  0  0  0  0  0  0
   -3.3473    2.6664    0.0000 N   0  0  0  0  0  0  0  0  0  0  0  0
   -3.6022    1.8818    0.0000 N   0  0  0  0  0  0  0  0  0  0  0  0
   -2.9348    1.3969    0.0000 C   0  0  0  0  0  0  0  0  0  0  0  0
   -2.2673    1.8818    0.0000 C   0  0  0  0  0  0  0  0  0  0  0  0
   -2.5223    2.6664    0.0000 C   0  0  0  0  0  0  0  0  0  0  0  0
   -1.9702    3.2795    0.0000 C   0  0  0  0  0  0  0  0  0  0  0  0
   -1.1633    3.1080    0.0000 C   0  0  0  0  0  0  0  0  0  0  0  0
   -0.9083    2.3234    0.0000 C   0  0  0  0  0  0  0  0  0  0  0  0
   -1.4604    1.7103    0.0000 C   0  0  0  0  0  0  0  0  0  0  0  0
   -1.2054    0.9256    0.0000 N   0  0  0  0  0  0  0  0  0  0  0  0
   -0.3984    0.7541    0.0000 C   0  0  0  0  0  0  0  0  0  0  0  0
    0.1536    1.3672    0.0000 O   0  0  0  0  0  0  0  0  0  0  0  0
   -0.1435   -0.0305    0.0000 C   0  0  0  0  0  0  0  0  0  0  0  0
   -0.6284   -0.6979    0.0000 N   0  0  0  0  0  0  0  0  0  0  0  0
   -0.1435   -1.3654    0.0000 O   0  0  0  0  0  0  0  0  0  0  0  0
    0.6411   -1.1104    0.0000 C   0  0  0  0  0  0  0  0  0  0  0  0
    0.6411   -0.2854    0.0000 C   0  0  0  0  0  0  0  0  0  0  0  0
    1.3556    0.1271    0.0000 C   0  0  0  0  0  0  0  0  0  0  0  0
    2.0701   -0.2854    0.0000 C   0  0  0  0  0  0  0  0  0  0  0  0
    2.0701   -1.1104    0.0000 C   0  0  0  0  0  0  0  0  0  0  0  0
    1.3556   -1.5229    0.0000 C   0  0  0  0  0  0  0  0  0  0  0  0
  1  2  1  0  0  0  0
  2  3  4  0  0  0  0
  3  4  4  0  0  0  0
  4  5  4  0  0  0  0
  5  6  4  0  0  0  0
  6  7  4  0  0  0  0
  2  7  4  0  0  0  0
  7  8  1  0  0  0  0
  8  9  4  0  0  0  0
  9 10  4  0  0  0  0
 10 11  4  0  0  0  0
 11 12  4  0  0  0  0
  8 12  4  0  0  0  0
 12 13  1  0  0  0  0
 13 14  1  0  0  0  0
 14 15  1  0  0  0  0
 15 16  1  0  0  0  0
 11 16  1  0  0  0  0
 16 17  1  0  0  0  0
 17 18  1  0  0  0  0
 18 19  2  0  0  0  0
 18 20  1  0  0  0  0
 20 21  4  0  0  0  0
 21 22  4  0  0  0  0
 22 23  4  0  0  0  0
 23 24  4  0  0  0  0
 20 24  4  0  0  0  0
 24 25  1  0  0  0  0
 25 26  1  0  0  0  0
 26 27  1  0  0  0  0
 27 28  1  0  0  0  0
 23 28  1  0  0  0  0
M  END
> <IC50(uM)>
0.0028294117647058824

> <Outcome>
1.0

> <BindingDB ID>
51334975; 51334960; 993102; 51334973; 51334957; 993097

> <BindingDB MonomerID>
477604; 477599

> <BindingDB Ligand Name>
(R)??N-(1-(2-methylphenyl)-4,5,6,7-tetrahydro-1H-indazol-4-34)-4,5,6,7-tetrahydrobenzo[d]isoxazole-3-carboxamide::US10889564, Example 34; N-[1-(2-methylphenyl)-4,5,6,7-tetrahydro-1H-indazol-4-yl]-4,5,6,7-tetrahydro-1,2-benzoxazole-3-carboxamide::US10889564, Example 29

> <Curation/DataSource>
ChEMBL; US Patent

> <Article DOI>
10.1021/acs.jmedchem.9b01658; ?

> <PMID>
32212728; ?

> <Patent Number>
?; US10889564

> <Authors>
Popova, G; Ladds, MJGW; Johansson, L; Saleh, A; Larsson, J; Sandberg, L; Sahlberg, SH; Qian, W; Gullberg, H; Garg, N; Gustavsson, AL; Haraldsson, M; Lane, D; Yngve, U; Lain, S; Lain, S; Drummond, C; Leeuwen, IV; Haraldsson, M; Johansson, L; Sandberg, L; Yngve, U

> <Link to Ligand in BindingDB>
http://www.bindingdb.org/bind/chemsearch/marvin/MolStructure.jsp?monomerid=477604; http://www.bindingdb.org/bind/chemsearch/marvin/MolStructure.jsp?monomerid=477599

> <Link to Ligand-Target Pair in BindingDB>
http://www.bindingdb.org/jsp/dbsearch/PrimarySearch_ki.jsp?energyterm=kJ/mole&tag=r21&monomerid=477604&enzyme=Dihydroorotate+dehydrogenase&column=ki&startPg=0&Increment=50&submit=Search; http://www.bindingdb.org/jsp/dbsearch/PrimarySearch_ki.jsp?energyterm=kJ/mole&tag=r21&monomerid=477599&enzyme=Dihydroorotate+dehydrogenase&column=ki&startPg=0&Increment=50&submit=Search

> <PubChem CID>
129104776; 129104778

> <PubChem SID>
442137221; 442137216

$$$$

  Mrv2115 07222212352D          

 27 30  0  0  0  0            999 V2000
    3.9934    2.4750    0.0000 O   0  0  0  0  0  0  0  0  0  0  0  0
    3.2789    2.0625    0.0000 C   0  0  0  0  0  0  0  0  0  0  0  0
    2.5645    2.4750    0.0000 O   0  0  0  0  0  0  0  0  0  0  0  0
    3.2789    1.2375    0.0000 C   0  0  0  0  0  0  0  0  0  0  0  0
    3.9934    0.8250    0.0000 C   0  0  0  0  0  0  0  0  0  0  0  0
    3.9934    0.0000    0.0000 C   0  0  0  0  0  0  0  0  0  0  0  0
    3.2789   -0.4125    0.0000 C   0  0  0  0  0  0  0  0  0  0  0  0
    2.5645    0.0000    0.0000 C   0  0  0  0  0  0  0  0  0  0  0  0
    1.7798   -0.2549    0.0000 N   0  0  0  0  0  0  0  0  0  0  0  0
    1.2949    0.4125    0.0000 C   0  0  0  0  0  0  0  0  0  0  0  0
    0.4699    0.4125    0.0000 C   0  0  0  0  0  0  0  0  0  0  0  0
    0.0574   -0.3020    0.0000 C   0  0  0  0  0  0  0  0  0  0  0  0
    0.4699   -1.0164    0.0000 F   0  0  0  0  0  0  0  0  0  0  0  0
   -0.7676   -0.3020    0.0000 C   0  0  0  0  0  0  0  0  0  0  0  0
   -1.1801   -1.0164    0.0000 F   0  0  0  0  0  0  0  0  0  0  0  0
   -1.1801    0.4125    0.0000 C   0  0  0  0  0  0  0  0  0  0  0  0
   -2.0051    0.4125    0.0000 C   0  0  0  0  0  0  0  0  0  0  0  0
   -2.4900   -0.2549    0.0000 C   0  0  0  0  0  0  0  0  0  0  0  0
   -3.2746   -0.0000    0.0000 C   0  0  0  0  0  0  0  0  0  0  0  0
   -3.2746    0.8250    0.0000 S   0  0  0  0  0  0  0  0  0  0  0  0
   -2.4900    1.0799    0.0000 C   0  0  0  0  0  0  0  0  0  0  0  0
   -0.7676    1.1270    0.0000 C   0  0  0  0  0  0  0  0  0  0  0  0
   -1.1801    1.8414    0.0000 F   0  0  0  0  0  0  0  0  0  0  0  0
    0.0574    1.1270    0.0000 C   0  0  0  0  0  0  0  0  0  0  0  0
    0.4699    1.8414    0.0000 F   0  0  0  0  0  0  0  0  0  0  0  0
    1.7798    1.0799    0.0000 N   0  0  0  0  0  0  0  0  0  0  0  0
    2.5645    0.8250    0.0000 C   0  0  0  0  0  0  0  0  0  0  0  0
  1  2  2  0  0  0  0
  2  3  1  0  0  0  0
  2  4  1  0  0  0  0
  4  5  4  0  0  0  0
  5  6  4  0  0  0  0
  6  7  4  0  0  0  0
  7  8  4  0  0  0  0
  8  9  4  0  0  0  0
  9 10  4  0  0  0  0
 10 11  1  0  0  0  0
 11 12  4  0  0  0  0
 12 13  1  0  0  0  0
 12 14  4  0  0  0  0
 14 15  1  0  0  0  0
 14 16  4  0  0  0  0
 16 17  1  0  0  0  0
 17 18  4  0  0  0  0
 18 19  4  0  0  0  0
 19 20  4  0  0  0  0
 20 21  4  0  0  0  0
 17 21  4  0  0  0  0
 16 22  4  0  0  0  0
 22 23  1  0  0  0  0
 22 24  4  0  0  0  0
 11 24  4  0  0  0  0
 24 25  1  0  0  0  0
 10 26  4  0  0  0  0
 26 27  4  0  0  0  0
  4 27  4  0  0  0  0
  8 27  4  0  0  0  0
M  STY  1   1 DAT
M  SAL   1  1   9
M  SDT   1 MRV_IMPLICIT_H                                        
M  SDD   1     0.5304   -0.4125    DR    ALL  0       0  
M  SED   1 IMPL_H1
M  END
> <IC50(uM)>
0.441

> <Outcome>
1.0

> <BindingDB ID>
297846

> <BindingDB MonomerID>
155502

> <BindingDB Ligand Name>
US9006454, I144

> <Curation/DataSource>
US Patent

> <Article DOI>
?

> <PMID>
?

> <Patent Number>
US9006454

> <Authors>
Thunuguntla, SS; Subramanya, H; Kunnam, SR; Sanivaru Vijay, SR; Bingi, C; Kusanur, R; Schwarz, M; Arlt, M

> <Link to Ligand in BindingDB>
http://www.bindingdb.org/bind/chemsearch/marvin/MolStructure.jsp?monomerid=155502

> <Link to Ligand-Target Pair in BindingDB>
http://www.bindingdb.org/jsp/dbsearch/PrimarySearch_ki.jsp?energyterm=kJ/mole&tag=r21&monomerid=155502&enzyme=Dihydroorotate+dehydrogenase&column=ki&startPg=0&Increment=50&submit=Search

> <PubChem CID>
58073850

> <PubChem SID>
253658439

$$$$

  Mrv2115 07222212352D          

 27 30  0  0  0  0            999 V2000
    2.1434   -2.8875    0.0000 O   0  0  0  0  0  0  0  0  0  0  0  0
    1.4289   -2.4750    0.0000 C   0  0  0  0  0  0  0  0  0  0  0  0
    0.7145   -2.8875    0.0000 O   0  0  0  0  0  0  0  0  0  0  0  0
    1.4289   -1.6500    0.0000 C   0  0  0  0  0  0  0  0  0  0  0  0
    0.7145   -1.2375    0.0000 C   0  0  0  0  0  0  0  0  0  0  0  0
    0.0000   -1.6500    0.0000 O   0  0  0  0  0  0  0  0  0  0  0  0
    0.7145   -0.4125    0.0000 C   0  0  0  0  0  0  0  0  0  0  0  0
    0.0000    0.0000    0.0000 C   0  0  0  0  0  0  0  0  0  0  0  0
   -0.7145   -0.4125    0.0000 C   0  0  0  0  0  0  0  0  0  0  0  0
   -1.4289    0.0000    0.0000 C   0  0  0  0  0  0  0  0  0  0  0  0
   -1.4289    0.8250    0.0000 C   0  0  0  0  0  0  0  0  0  0  0  0
   -2.1434    1.2375    0.0000 C   0  0  0  0  0  0  0  0  0  0  0  0
   -2.8579    0.8250    0.0000 C   0  0  0  0  0  0  0  0  0  0  0  0
   -3.5724    1.2375    0.0000 C   0  0  0  0  0  0  0  0  0  0  0  0
   -3.5724    2.0625    0.0000 C   0  0  0  0  0  0  0  0  0  0  0  0
   -2.8579    2.4750    0.0000 C   0  0  0  0  0  0  0  0  0  0  0  0
   -2.1434    2.0625    0.0000 C   0  0  0  0  0  0  0  0  0  0  0  0
   -0.7145    1.2375    0.0000 C   0  0  0  0  0  0  0  0  0  0  0  0
    0.0000    0.8250    0.0000 C   0  0  0  0  0  0  0  0  0  0  0  0
    1.4289    0.0000    0.0000 N   0  0  0  0  0  0  0  0  0  0  0  0
    2.1434   -0.4125    0.0000 C   0  0  0  0  0  0  0  0  0  0  0  0
    2.8579    0.0000    0.0000 C   0  0  0  0  0  0  0  0  0  0  0  0
    3.5724   -0.4125    0.0000 C   0  0  0  0  0  0  0  0  0  0  0  0
    3.5724   -1.2375    0.0000 C   0  0  0  0  0  0  0  0  0  0  0  0
    4.2868   -1.6500    0.0000 F   0  0  0  0  0  0  0  0  0  0  0  0
    2.8579   -1.6500    0.0000 C   0  0  0  0  0  0  0  0  0  0  0  0
    2.1434   -1.2375    0.0000 C   0  0  0  0  0  0  0  0  0  0  0  0
  1  2  2  0  0  0  0
  2  3  1  0  0  0  0
  2  4  1  0  0  0  0
  4  5  4  0  0  0  0
  5  6  1  0  0  0  0
  5  7  4  0  0  0  0
  7  8  1  0  0  0  0
  8  9  4  0  0  0  0
  9 10  4  0  0  0  0
 10 11  4  0  0  0  0
 11 12  1  0  0  0  0
 12 13  4  0  0  0  0
 13 14  4  0  0  0  0
 14 15  4  0  0  0  0
 15 16  4  0  0  0  0
 16 17  4  0  0  0  0
 12 17  4  0  0  0  0
 11 18  4  0  0  0  0
 18 19  4  0  0  0  0
  8 19  4  0  0  0  0
  7 20  4  0  0  0  0
 20 21  4  0  0  0  0
 21 22  4  0  0  0  0
 22 23  4  0  0  0  0
 23 24  4  0  0  0  0
 24 25  1  0  0  0  0
 24 26  4  0  0  0  0
 26 27  4  0  0  0  0
  4 27  4  0  0  0  0
 21 27  4  0  0  0  0
M  END
> <IC50(uM)>
0.005

> <Outcome>
1.0

> <BindingDB ID>
50841889

> <BindingDB MonomerID>
50201921

> <BindingDB Ligand Name>
2-Biphenyl-4-yl-6-fluoro-3-hydroxy-quinoline-4-carboxylic acid::CHEMBL41719

> <Curation/DataSource>
ChEMBL

> <Article DOI>
10.1021/jm0602256

> <PMID>
17201408

> <Patent Number>
?

> <Authors>
Kaila, N; Janz, K; DeBernardo, S; Bedard, PW; Camphausen, RT; Tam, S; Tsao, DH; Keith, JC; Nickerson-Nutter, C; Shilling, A; Young-Sciame, R; Wang, Q

> <Link to Ligand in BindingDB>
http://www.bindingdb.org/bind/chemsearch/marvin/MolStructure.jsp?monomerid=50201921

> <Link to Ligand-Target Pair in BindingDB>
http://www.bindingdb.org/jsp/dbsearch/PrimarySearch_ki.jsp?energyterm=kJ/mole&tag=r21&monomerid=50201921&enzyme=Dihydroorotate+dehydrogenase&column=ki&startPg=0&Increment=50&submit=Search

> <PubChem CID>
14498146

> <PubChem SID>
104081572

$$$$

  Mrv2115 07222212352D          

 35 37  0  0  0  0            999 V2000
    2.1434   -3.7125    0.0000 C   0  0  0  0  0  0  0  0  0  0  0  0
    1.4289   -4.1250    0.0000 C   0  0  0  0  0  0  0  0  0  0  0  0
    1.4289   -4.9500    0.0000 N   0  0  0  0  0  0  0  0  0  0  0  0
    2.0964   -5.4349    0.0000 C   0  0  0  0  0  0  0  0  0  0  0  0
    2.8810   -5.1800    0.0000 C   0  0  0  0  0  0  0  0  0  0  0  0
    3.4941   -5.7320    0.0000 O   0  0  0  0  0  0  0  0  0  0  0  0
    3.0525   -4.3730    0.0000 O   0  0  0  0  0  0  0  0  0  0  0  0
    1.8414   -6.2195    0.0000 N   0  0  0  0  0  0  0  0  0  0  0  0
    1.0164   -6.2195    0.0000 N   0  0  0  0  0  0  0  0  0  0  0  0
    0.5315   -6.8870    0.0000 C   0  0  0  0  0  0  0  0  0  0  0  0
    0.8671   -7.6407    0.0000 C   0  0  0  0  0  0  0  0  0  0  0  0
    0.3822   -8.3081    0.0000 C   0  0  0  0  0  0  0  0  0  0  0  0
   -0.4383   -8.2219    0.0000 C   0  0  0  0  0  0  0  0  0  0  0  0
   -0.9232   -8.8893    0.0000 C   0  0  0  0  0  0  0  0  0  0  0  0
   -1.7437   -8.8031    0.0000 O   0  0  0  0  0  0  0  0  0  0  0  0
   -0.5877   -9.6430    0.0000 N   0  0  0  0  0  0  0  0  0  0  0  0
   -1.0726  -10.3104    0.0000 C   0  0  0  0  0  0  0  0  0  0  0  0
   -0.7371  -11.0641    0.0000 C   0  0  0  0  0  0  0  0  0  0  0  0
    0.0834  -11.1503    0.0000 F   0  0  0  0  0  0  0  0  0  0  0  0
   -1.2220  -11.7315    0.0000 C   0  0  0  0  0  0  0  0  0  0  0  0
   -2.0425  -11.6453    0.0000 C   0  0  0  0  0  0  0  0  0  0  0  0
   -2.3780  -10.8916    0.0000 C   0  0  0  0  0  0  0  0  0  0  0  0
   -1.8931  -10.2242    0.0000 C   0  0  0  0  0  0  0  0  0  0  0  0
   -2.2287   -9.4705    0.0000 Cl  0  0  0  0  0  0  0  0  0  0  0  0
   -0.7739   -7.4682    0.0000 C   0  0  0  0  0  0  0  0  0  0  0  0
   -1.5944   -7.3820    0.0000 O   0  0  0  0  0  0  0  0  0  0  0  0
   -1.9299   -6.6283    0.0000 C   0  0  0  0  0  0  0  0  0  0  0  0
   -2.7504   -6.5420    0.0000 C   0  0  0  0  0  0  0  0  0  0  0  0
   -1.4450   -5.9608    0.0000 C   0  0  0  0  0  0  0  0  0  0  0  0
   -0.7776   -6.4458    0.0000 F   0  0  0  0  0  0  0  0  0  0  0  0
   -2.1124   -5.4759    0.0000 F   0  0  0  0  0  0  0  0  0  0  0  0
   -0.9601   -5.2934    0.0000 F   0  0  0  0  0  0  0  0  0  0  0  0
   -0.2890   -6.8007    0.0000 C   0  0  0  0  0  0  0  0  0  0  0  0
    0.7615   -5.4349    0.0000 C   0  0  0  0  0  0  0  0  0  0  0  0
   -0.0231   -5.1800    0.0000 O   0  0  0  0  0  0  0  0  0  0  0  0
  1  2  1  0  0  0  0
  2  3  1  0  0  0  0
  3  4  4  0  0  0  0
  4  5  1  0  0  0  0
  5  6  2  0  0  0  0
  5  7  1  0  0  0  0
  4  8  4  0  0  0  0
  8  9  4  0  0  0  0
  9 10  1  0  0  0  0
 10 11  4  0  0  0  0
 11 12  4  0  0  0  0
 12 13  4  0  0  0  0
 13 14  1  0  0  0  0
 14 15  2  0  0  0  0
 14 16  1  0  0  0  0
 16 17  1  0  0  0  0
 17 18  4  0  0  0  0
 18 19  1  0  0  0  0
 18 20  4  0  0  0  0
 20 21  4  0  0  0  0
 21 22  4  0  0  0  0
 22 23  4  0  0  0  0
 17 23  4  0  0  0  0
 23 24  1  0  0  0  0
 13 25  4  0  0  0  0
 25 26  1  0  0  0  0
 26 27  1  0  0  0  0
 27 28  1  0  0  0  0
 27 29  1  0  0  0  0
 29 30  1  0  0  0  0
 29 31  1  0  0  0  0
 29 32  1  0  0  0  0
 25 33  4  0  0  0  0
 10 33  4  0  0  0  0
  9 34  4  0  0  0  0
  3 34  4  0  0  0  0
 34 35  2  0  0  0  0
M  END
> <IC50(uM)>
0.006

> <Outcome>
1.0

> <BindingDB ID>
972673; 1098827

> <BindingDB MonomerID>
470551

> <BindingDB Ligand Name>
1-(4-[(2-chloro-6-fluorophenyl)carbamoyl]-3-{[(2S)-1,1,1-trifluoropropan-2-yl]oxy}phenyl)-4-ethyl-5-oxo-4,5-dihydro-1H-1,2,4-triazole-3-carboxylic acid::US10815215, Example 211; 1-(4-[(2-chloro-6-fluorophenyl)carbamoyl]-3-{[(2S)-1,1,1-trifluoropropan-2-yl]oxy}phenyl)-4-ethyl-5-oxo-4,5-dihydro-1H-1,2,4-triazole-3-carboxylic acid::US10815215, Example 211::US11130745, Example 211

> <Curation/DataSource>
US Patent

> <Article DOI>
?

> <PMID>
?

> <Patent Number>
US10815215; US11130745

> <Authors>
Gradl, SN; Nguyen, D; Eis, K; Gunther, J; Stellfeld, T; Janzer, A; Christian, S; Muller, T; Sheikh, SE; Zhou, HJ; Zhao, C; Sykes, DB; Ferrara, SJ; Liu, K; Krober, M; Merz, C; Niehues, M; Schafer, M; Zimmermann, K; Nising, CF; Gradl, SN; Nguyen, D; Eis, K; Gunther, J; Stellfeld, T; Janzer, A; Christian, S; Muller, T; Sheikh, SE; Sykes, DB; Ferrara, SJ; Krober, M; Merz, C; Niehues, M; Schafer, M; Zimmermann, K; Nising, CF

> <Link to Ligand in BindingDB>
http://www.bindingdb.org/bind/chemsearch/marvin/MolStructure.jsp?monomerid=470551

> <Link to Ligand-Target Pair in BindingDB>
http://www.bindingdb.org/jsp/dbsearch/PrimarySearch_ki.jsp?energyterm=kJ/mole&tag=r21&monomerid=470551&enzyme=Dihydroorotate+dehydrogenase&column=ki&startPg=0&Increment=50&submit=Search

> <PubChem CID>
134470177

> <PubChem SID>
441609727

$$$$

  Mrv2115 07222212352D          

 22 24  0  0  0  0            999 V2000
   -2.3304    4.5315    0.0000 C   0  0  0  0  0  0  0  0  0  0  0  0
   -1.5458    4.7864    0.0000 C   0  0  0  0  0  0  0  0  0  0  0  0
   -1.3743    5.5934    0.0000 C   0  0  0  0  0  0  0  0  0  0  0  0
   -0.5897    5.8484    0.0000 C   0  0  0  0  0  0  0  0  0  0  0  0
    0.0234    5.2963    0.0000 C   0  0  0  0  0  0  0  0  0  0  0  0
    0.8081    5.5513    0.0000 N   0  0  0  0  0  0  0  0  0  0  0  0
    0.9796    6.3582    0.0000 C   0  0  0  0  0  0  0  0  0  0  0  0
    0.4275    6.9713    0.0000 S   0  0  0  0  0  0  0  0  0  0  0  0
    0.8400    7.6858    0.0000 C   0  0  0  0  0  0  0  0  0  0  0  0
    1.6470    7.5143    0.0000 C   0  0  0  0  0  0  0  0  0  0  0  0
    2.2601    8.0663    0.0000 O   0  0  0  0  0  0  0  0  0  0  0  0
    1.7333    6.6938    0.0000 C   0  0  0  0  0  0  0  0  0  0  0  0
    2.4477    6.2813    0.0000 C   0  0  0  0  0  0  0  0  0  0  0  0
    3.1622    6.6938    0.0000 O   0  0  0  0  0  0  0  0  0  0  0  0
    2.4477    5.4563    0.0000 O   0  0  0  0  0  0  0  0  0  0  0  0
    3.1622    5.0438    0.0000 C   0  0  0  0  0  0  0  0  0  0  0  0
    3.1622    4.2188    0.0000 C   0  0  0  0  0  0  0  0  0  0  0  0
    3.5747    3.5043    0.0000 C   0  0  0  0  0  0  0  0  0  0  0  0
    2.7497    3.5043    0.0000 C   0  0  0  0  0  0  0  0  0  0  0  0
   -0.1481    4.4894    0.0000 C   0  0  0  0  0  0  0  0  0  0  0  0
   -0.9327    4.2344    0.0000 C   0  0  0  0  0  0  0  0  0  0  0  0
   -1.1042    3.4274    0.0000 C   0  0  0  0  0  0  0  0  0  0  0  0
  1  2  1  0  0  0  0
  2  3  4  0  0  0  0
  3  4  4  0  0  0  0
  4  5  4  0  0  0  0
  5  6  1  0  0  0  0
  6  7  1  0  0  0  0
  7  8  4  0  0  0  0
  8  9  4  0  0  0  0
  9 10  4  0  0  0  0
 10 11  1  0  0  0  0
 10 12  4  0  0  0  0
  7 12  4  0  0  0  0
 12 13  1  0  0  0  0
 13 14  2  0  0  0  0
 13 15  1  0  0  0  0
 15 16  1  0  0  0  0
 16 17  1  0  0  0  0
 17 18  1  0  0  0  0
 18 19  1  0  0  0  0
 17 19  1  0  0  0  0
  5 20  4  0  0  0  0
 20 21  4  0  0  0  0
  2 21  4  0  0  0  0
 21 22  1  0  0  0  0
M  END
> <IC50(uM)>
50.0

> <Outcome>
0.0

> <BindingDB ID>
51079160

> <BindingDB MonomerID>
50441268

> <BindingDB Ligand Name>
CHEMBL2431481

> <Curation/DataSource>
ChEMBL

> <Article DOI>
10.1021/jm400938g

> <PMID>
24073986

> <Patent Number>
?

> <Authors>
Xu, M; Zhu, J; Diao, Y; Zhou, H; Ren, X; Sun, D; Huang, J; Han, D; Zhao, Z; Zhu, L; Xu, Y; Li, H

> <Link to Ligand in BindingDB>
http://www.bindingdb.org/bind/chemsearch/marvin/MolStructure.jsp?monomerid=50441268

> <Link to Ligand-Target Pair in BindingDB>
http://www.bindingdb.org/jsp/dbsearch/PrimarySearch_ki.jsp?energyterm=kJ/mole&tag=r21&monomerid=50441268&enzyme=Dihydroorotate+dehydrogenase&column=ki&startPg=0&Increment=50&submit=Search

> <PubChem CID>
91898829

> <PubChem SID>
175453585

$$$$

  Mrv2115 07222212352D          

 37 40  0  0  0  0            999 V2000
   -4.4458    1.4423    0.0000 C   0  0  0  0  0  0  0  0  0  0  0  0
   -5.2708    1.4423    0.0000 O   0  0  0  0  0  0  0  0  0  0  0  0
   -5.6833    0.7279    0.0000 C   0  0  0  0  0  0  0  0  0  0  0  0
   -6.5083    0.7279    0.0000 C   0  0  0  0  0  0  0  0  0  0  0  0
   -6.9208    0.0134    0.0000 C   0  0  0  0  0  0  0  0  0  0  0  0
   -6.5083   -0.7011    0.0000 C   0  0  0  0  0  0  0  0  0  0  0  0
   -5.6833   -0.7011    0.0000 C   0  0  0  0  0  0  0  0  0  0  0  0
   -5.2708   -1.4156    0.0000 C   0  0  0  0  0  0  0  0  0  0  0  0
   -5.2708    0.0134    0.0000 C   0  0  0  0  0  0  0  0  0  0  0  0
   -4.4458    0.0134    0.0000 N   0  0  0  0  0  0  0  0  0  0  0  0
   -4.0333   -0.7011    0.0000 C   0  0  0  0  0  0  0  0  0  0  0  0
   -4.4458   -1.4156    0.0000 O   0  0  0  0  0  0  0  0  0  0  0  0
   -3.2083   -0.7011    0.0000 C   0  0  0  0  0  0  0  0  0  0  0  0
   -2.7958    0.0134    0.0000 C   0  0  0  0  0  0  0  0  0  0  0  0
   -1.9708    0.0134    0.0000 C   0  0  0  0  0  0  0  0  0  0  0  0
   -1.5583    0.7279    0.0000 F   0  0  0  0  0  0  0  0  0  0  0  0
   -1.5583   -0.7011    0.0000 C   0  0  0  0  0  0  0  0  0  0  0  0
   -0.7333   -0.7011    0.0000 N   0  0  0  0  0  0  0  0  0  0  0  0
   -0.2483   -1.3685    0.0000 N   0  0  0  0  0  0  0  0  0  0  0  0
    0.5363   -1.1136    0.0000 C   0  0  0  0  0  0  0  0  0  0  0  0
    0.5363   -0.2886    0.0000 N   0  0  0  0  0  0  0  0  0  0  0  0
   -0.2483   -0.0336    0.0000 C   0  0  0  0  0  0  0  0  0  0  0  0
   -0.5033    0.7510    0.0000 O   0  0  0  0  0  0  0  0  0  0  0  0
    1.1813    0.2258    0.0000 C   0  0  0  0  0  0  0  0  0  0  0  0
    1.9856    0.0422    0.0000 C   0  0  0  0  0  0  0  0  0  0  0  0
    2.3436   -0.7011    0.0000 C   0  0  0  0  0  0  0  0  0  0  0  0
    1.9856   -1.4444    0.0000 O   0  0  0  0  0  0  0  0  0  0  0  0
    1.1813   -1.6280    0.0000 C   0  0  0  0  0  0  0  0  0  0  0  0
   -1.9708   -1.4156    0.0000 C   0  0  0  0  0  0  0  0  0  0  0  0
   -2.7958   -1.4156    0.0000 C   0  0  0  0  0  0  0  0  0  0  0  0
   -3.2083   -2.1300    0.0000 O   0  0  0  0  0  0  0  0  0  0  0  0
   -2.7958   -2.8445    0.0000 C   0  0  0  0  0  0  0  0  0  0  0  0
   -1.9708   -2.8445    0.0000 C   0  0  0  0  0  0  0  0  0  0  0  0
   -3.2083   -3.5590    0.0000 C   0  0  0  0  0  0  0  0  0  0  0  0
   -3.9227   -3.1465    0.0000 F   0  0  0  0  0  0  0  0  0  0  0  0
   -2.4938   -3.9715    0.0000 F   0  0  0  0  0  0  0  0  0  0  0  0
   -3.6208   -4.2734    0.0000 F   0  0  0  0  0  0  0  0  0  0  0  0
  1  2  1  0  0  0  0
  2  3  1  0  0  0  0
  3  4  4  0  0  0  0
  4  5  4  0  0  0  0
  5  6  4  0  0  0  0
  6  7  4  0  0  0  0
  7  8  1  0  0  0  0
  7  9  4  0  0  0  0
  3  9  4  0  0  0  0
  9 10  1  0  0  0  0
 10 11  1  0  0  0  0
 11 12  2  0  0  0  0
 11 13  1  0  0  0  0
 13 14  4  0  0  0  0
 14 15  4  0  0  0  0
 15 16  1  0  0  0  0
 15 17  4  0  0  0  0
 17 18  1  0  0  0  0
 18 19  4  0  0  0  0
 19 20  4  0  0  0  0
 20 21  4  0  0  0  0
 21 22  4  0  0  0  0
 18 22  4  0  0  0  0
 22 23  2  0  0  0  0
 21 24  1  0  0  0  0
 24 25  1  0  0  0  0
 25 26  1  0  0  0  0
 26 27  1  0  0  0  0
 27 28  1  0  0  0  0
 20 28  1  0  0  0  0
 17 29  4  0  0  0  0
 29 30  4  0  0  0  0
 13 30  4  0  0  0  0
 30 31  1  0  0  0  0
 31 32  1  0  0  0  0
 32 33  1  0  0  0  0
 32 34  1  0  0  0  0
 34 35  1  0  0  0  0
 34 36  1  0  0  0  0
 34 37  1  0  0  0  0
M  END
> <IC50(uM)>
0.009

> <Outcome>
1.0

> <BindingDB ID>
1020645

> <BindingDB MonomerID>
490574

> <BindingDB Ligand Name>
5-fluoro-N-(2-methoxy-6-methylphenyl)-4-(3-oxo-6,7-dihydro-3H,5H-[1,2,4]triazolo[3,4-c]-[1,4]oxazepin-2(9H)-yl)-2-{[(2S)-1,1,1-trifluoropropan-2-yl]oxy}benzamide::US10968216, Example 242

> <Curation/DataSource>
US Patent

> <Article DOI>
?

> <PMID>
?

> <Patent Number>
US10968216

> <Authors>
Gradl, SN; Nguyen, D; Eis, K; Gunther, J; Stellfeld, T; Janzer, A; Christian, S; Mueller, T; Sheikh, SE; Zhou, HJ; Zhao, C; Sykes, DB; Ferrara, SJ; Liu, K; Herbert, SA; Merz, C; Niehues, M; Nising, CF; Schafer, M; Zimmermann, K; Knablein, J; Thede, K; Faupel, T

> <Link to Ligand in BindingDB>
http://www.bindingdb.org/bind/chemsearch/marvin/MolStructure.jsp?monomerid=490574

> <Link to Ligand-Target Pair in BindingDB>
http://www.bindingdb.org/jsp/dbsearch/PrimarySearch_ki.jsp?energyterm=kJ/mole&tag=r21&monomerid=490574&enzyme=Dihydroorotate+dehydrogenase&column=ki&startPg=0&Increment=50&submit=Search

> <PubChem CID>
134474064

> <PubChem SID>
447117300

$$$$

  Mrv2115 07222212352D          

 21 23  0  0  0  0            999 V2000
   -1.8936   -4.0640    0.0000 C   0  0  0  0  0  0  0  0  0  0  0  0
   -2.0652   -3.2570    0.0000 O   0  0  0  0  0  0  0  0  0  0  0  0
   -1.4521   -2.7050    0.0000 C   0  0  0  0  0  0  0  0  0  0  0  0
   -1.6236   -1.8980    0.0000 O   0  0  0  0  0  0  0  0  0  0  0  0
   -0.6674   -2.9599    0.0000 C   0  0  0  0  0  0  0  0  0  0  0  0
   -0.4125   -3.7445    0.0000 C   0  0  0  0  0  0  0  0  0  0  0  0
   -0.8974   -4.4120    0.0000 O   0  0  0  0  0  0  0  0  0  0  0  0
    0.4125   -3.7445    0.0000 C   0  0  0  0  0  0  0  0  0  0  0  0
    0.6674   -2.9599    0.0000 S   0  0  0  0  0  0  0  0  0  0  0  0
    0.0000   -2.4750    0.0000 C   0  0  0  0  0  0  0  0  0  0  0  0
    0.0000   -1.6500    0.0000 N   0  0  0  0  0  0  0  0  0  0  0  0
    0.7145   -1.2375    0.0000 C   0  0  0  0  0  0  0  0  0  0  0  0
    0.7145   -0.4125    0.0000 C   0  0  0  0  0  0  0  0  0  0  0  0
    1.4289    0.0000    0.0000 C   0  0  0  0  0  0  0  0  0  0  0  0
    2.1434   -0.4125    0.0000 C   0  0  0  0  0  0  0  0  0  0  0  0
    2.8579    0.0000    0.0000 C   0  0  0  0  0  0  0  0  0  0  0  0
    3.5724   -0.4125    0.0000 C   0  0  0  0  0  0  0  0  0  0  0  0
    3.5724   -1.2375    0.0000 C   0  0  0  0  0  0  0  0  0  0  0  0
    2.8579   -1.6500    0.0000 C   0  0  0  0  0  0  0  0  0  0  0  0
    2.1434   -1.2375    0.0000 C   0  0  0  0  0  0  0  0  0  0  0  0
    1.4289   -1.6500    0.0000 C   0  0  0  0  0  0  0  0  0  0  0  0
  1  2  1  0  0  0  0
  2  3  1  0  0  0  0
  3  4  2  0  0  0  0
  3  5  1  0  0  0  0
  5  6  4  0  0  0  0
  6  7  1  0  0  0  0
  6  8  4  0  0  0  0
  8  9  4  0  0  0  0
  9 10  4  0  0  0  0
  5 10  4  0  0  0  0
 10 11  1  0  0  0  0
 11 12  1  0  0  0  0
 12 13  4  0  0  0  0
 13 14  4  0  0  0  0
 14 15  4  0  0  0  0
 15 16  4  0  0  0  0
 16 17  4  0  0  0  0
 17 18  4  0  0  0  0
 18 19  4  0  0  0  0
 19 20  4  0  0  0  0
 15 20  4  0  0  0  0
 20 21  4  0  0  0  0
 12 21  4  0  0  0  0
M  END
> <IC50(uM)>
50.0

> <Outcome>
0.0

> <BindingDB ID>
51079153

> <BindingDB MonomerID>
50441261

> <BindingDB Ligand Name>
CHEMBL2431488

> <Curation/DataSource>
ChEMBL

> <Article DOI>
10.1021/jm400938g

> <PMID>
24073986

> <Patent Number>
?

> <Authors>
Xu, M; Zhu, J; Diao, Y; Zhou, H; Ren, X; Sun, D; Huang, J; Han, D; Zhao, Z; Zhu, L; Xu, Y; Li, H

> <Link to Ligand in BindingDB>
http://www.bindingdb.org/bind/chemsearch/marvin/MolStructure.jsp?monomerid=50441261

> <Link to Ligand-Target Pair in BindingDB>
http://www.bindingdb.org/jsp/dbsearch/PrimarySearch_ki.jsp?energyterm=kJ/mole&tag=r21&monomerid=50441261&enzyme=Dihydroorotate+dehydrogenase&column=ki&startPg=0&Increment=50&submit=Search

> <PubChem CID>
91898822

> <PubChem SID>
175453578

$$$$

  Mrv2115 07222212352D          

 27 30  0  0  0  0            999 V2000
    3.9934    2.4750    0.0000 O   0  0  0  0  0  0  0  0  0  0  0  0
    3.2789    2.0625    0.0000 C   0  0  0  0  0  0  0  0  0  0  0  0
    2.5645    2.4750    0.0000 O   0  0  0  0  0  0  0  0  0  0  0  0
    3.2789    1.2375    0.0000 C   0  0  0  0  0  0  0  0  0  0  0  0
    3.9934    0.8250    0.0000 C   0  0  0  0  0  0  0  0  0  0  0  0
    3.9934    0.0000    0.0000 C   0  0  0  0  0  0  0  0  0  0  0  0
    3.2789   -0.4125    0.0000 C   0  0  0  0  0  0  0  0  0  0  0  0
    2.5645    0.0000    0.0000 C   0  0  0  0  0  0  0  0  0  0  0  0
    1.7798   -0.2549    0.0000 N   0  0  0  0  0  0  0  0  0  0  0  0
    1.2949    0.4125    0.0000 C   0  0  0  0  0  0  0  0  0  0  0  0
    0.4699    0.4125    0.0000 C   0  0  0  0  0  0  0  0  0  0  0  0
    0.0574   -0.3020    0.0000 C   0  0  0  0  0  0  0  0  0  0  0  0
    0.4699   -1.0164    0.0000 F   0  0  0  0  0  0  0  0  0  0  0  0
   -0.7676   -0.3020    0.0000 C   0  0  0  0  0  0  0  0  0  0  0  0
   -1.1801   -1.0164    0.0000 F   0  0  0  0  0  0  0  0  0  0  0  0
   -1.1801    0.4125    0.0000 C   0  0  0  0  0  0  0  0  0  0  0  0
   -2.0051    0.4125    0.0000 C   0  0  0  0  0  0  0  0  0  0  0  0
   -2.4900   -0.2549    0.0000 C   0  0  0  0  0  0  0  0  0  0  0  0
   -3.2746   -0.0000    0.0000 C   0  0  0  0  0  0  0  0  0  0  0  0
   -3.2746    0.8250    0.0000 C   0  0  0  0  0  0  0  0  0  0  0  0
   -2.4900    1.0799    0.0000 S   0  0  0  0  0  0  0  0  0  0  0  0
   -0.7676    1.1270    0.0000 C   0  0  0  0  0  0  0  0  0  0  0  0
   -1.1801    1.8414    0.0000 F   0  0  0  0  0  0  0  0  0  0  0  0
    0.0574    1.1270    0.0000 C   0  0  0  0  0  0  0  0  0  0  0  0
    0.4699    1.8414    0.0000 F   0  0  0  0  0  0  0  0  0  0  0  0
    1.7798    1.0799    0.0000 N   0  0  0  0  0  0  0  0  0  0  0  0
    2.5645    0.8250    0.0000 C   0  0  0  0  0  0  0  0  0  0  0  0
  1  2  2  0  0  0  0
  2  3  1  0  0  0  0
  2  4  1  0  0  0  0
  4  5  4  0  0  0  0
  5  6  4  0  0  0  0
  6  7  4  0  0  0  0
  7  8  4  0  0  0  0
  8  9  4  0  0  0  0
  9 10  4  0  0  0  0
 10 11  1  0  0  0  0
 11 12  4  0  0  0  0
 12 13  1  0  0  0  0
 12 14  4  0  0  0  0
 14 15  1  0  0  0  0
 14 16  4  0  0  0  0
 16 17  1  0  0  0  0
 17 18  4  0  0  0  0
 18 19  4  0  0  0  0
 19 20  4  0  0  0  0
 20 21  4  0  0  0  0
 17 21  4  0  0  0  0
 16 22  4  0  0  0  0
 22 23  1  0  0  0  0
 22 24  4  0  0  0  0
 11 24  4  0  0  0  0
 24 25  1  0  0  0  0
 10 26  4  0  0  0  0
 26 27  4  0  0  0  0
  4 27  4  0  0  0  0
  8 27  4  0  0  0  0
M  STY  1   1 DAT
M  SAL   1  1  26
M  SDT   1 MRV_IMPLICIT_H                                        
M  SDD   1     0.5304   -0.4125    DR    ALL  0       0  
M  SED   1 IMPL_H1
M  END
> <IC50(uM)>
0.5

> <Outcome>
1.0

> <BindingDB ID>
297826

> <BindingDB MonomerID>
155482

> <BindingDB Ligand Name>
US9006454, I124

> <Curation/DataSource>
US Patent

> <Article DOI>
?

> <PMID>
?

> <Patent Number>
US9006454

> <Authors>
Thunuguntla, SS; Subramanya, H; Kunnam, SR; Sanivaru Vijay, SR; Bingi, C; Kusanur, R; Schwarz, M; Arlt, M

> <Link to Ligand in BindingDB>
http://www.bindingdb.org/bind/chemsearch/marvin/MolStructure.jsp?monomerid=155482

> <Link to Ligand-Target Pair in BindingDB>
http://www.bindingdb.org/jsp/dbsearch/PrimarySearch_ki.jsp?energyterm=kJ/mole&tag=r21&monomerid=155482&enzyme=Dihydroorotate+dehydrogenase&column=ki&startPg=0&Increment=50&submit=Search

> <PubChem CID>
88583057

> <PubChem SID>
253658419

$$$$

  Mrv2115 07222212352D          

 37 39  0  0  0  0            999 V2000
    0.7145   -3.7125    0.0000 C   0  0  0  0  0  0  0  0  0  0  0  0
    0.0000   -4.1250    0.0000 C   0  0  0  0  0  0  0  0  0  0  0  0
    0.0000   -4.9500    0.0000 N   0  0  0  0  0  0  0  0  0  0  0  0
   -0.6674   -5.4349    0.0000 C   0  0  0  0  0  0  0  0  0  0  0  0
   -1.4521   -5.1800    0.0000 C   0  0  0  0  0  0  0  0  0  0  0  0
   -1.6236   -4.3730    0.0000 O   0  0  0  0  0  0  0  0  0  0  0  0
   -0.4125   -6.2195    0.0000 N   0  0  0  0  0  0  0  0  0  0  0  0
    0.4125   -6.2195    0.0000 N   0  0  0  0  0  0  0  0  0  0  0  0
    0.8974   -6.8870    0.0000 C   0  0  0  0  0  0  0  0  0  0  0  0
    1.7179   -6.8007    0.0000 C   0  0  0  0  0  0  0  0  0  0  0  0
    2.2028   -7.4682    0.0000 C   0  0  0  0  0  0  0  0  0  0  0  0
    3.0233   -7.3820    0.0000 O   0  0  0  0  0  0  0  0  0  0  0  0
    3.3589   -6.6283    0.0000 C   0  0  0  0  0  0  0  0  0  0  0  0
    2.8739   -5.9608    0.0000 C   0  0  0  0  0  0  0  0  0  0  0  0
    4.1793   -6.5420    0.0000 C   0  0  0  0  0  0  0  0  0  0  0  0
    4.2656   -7.3625    0.0000 F   0  0  0  0  0  0  0  0  0  0  0  0
    4.0931   -5.7216    0.0000 F   0  0  0  0  0  0  0  0  0  0  0  0
    4.9998   -6.4558    0.0000 F   0  0  0  0  0  0  0  0  0  0  0  0
    1.8673   -8.2219    0.0000 C   0  0  0  0  0  0  0  0  0  0  0  0
    2.3522   -8.8893    0.0000 C   0  0  0  0  0  0  0  0  0  0  0  0
    3.1727   -8.8031    0.0000 O   0  0  0  0  0  0  0  0  0  0  0  0
    2.0166   -9.6430    0.0000 N   0  0  0  0  0  0  0  0  0  0  0  0
    2.5016  -10.3104    0.0000 C   0  0  0  0  0  0  0  0  0  0  0  0
    3.3220  -10.2242    0.0000 C   0  0  0  0  0  0  0  0  0  0  0  0
    3.6576   -9.4705    0.0000 Cl  0  0  0  0  0  0  0  0  0  0  0  0
    3.8070  -10.8916    0.0000 C   0  0  0  0  0  0  0  0  0  0  0  0
    3.4714  -11.6453    0.0000 C   0  0  0  0  0  0  0  0  0  0  0  0
    2.6509  -11.7315    0.0000 C   0  0  0  0  0  0  0  0  0  0  0  0
    2.3154  -12.4852    0.0000 O   0  0  0  0  0  0  0  0  0  0  0  0
    2.8003  -13.1526    0.0000 C   0  0  0  0  0  0  0  0  0  0  0  0
    2.1660  -11.0641    0.0000 C   0  0  0  0  0  0  0  0  0  0  0  0
    1.3455  -11.1503    0.0000 F   0  0  0  0  0  0  0  0  0  0  0  0
    1.0468   -8.3081    0.0000 C   0  0  0  0  0  0  0  0  0  0  0  0
    0.5619   -7.6407    0.0000 C   0  0  0  0  0  0  0  0  0  0  0  0
   -0.2586   -7.7269    0.0000 F   0  0  0  0  0  0  0  0  0  0  0  0
    0.6674   -5.4349    0.0000 C   0  0  0  0  0  0  0  0  0  0  0  0
    1.4521   -5.1800    0.0000 O   0  0  0  0  0  0  0  0  0  0  0  0
  1  2  1  0  0  0  0
  2  3  1  0  0  0  0
  3  4  4  0  0  0  0
  4  5  1  0  0  0  0
  5  6  1  0  0  0  0
  4  7  4  0  0  0  0
  7  8  4  0  0  0  0
  8  9  1  0  0  0  0
  9 10  4  0  0  0  0
 10 11  4  0  0  0  0
 11 12  1  0  0  0  0
 12 13  1  0  0  0  0
 13 14  1  0  0  0  0
 13 15  1  0  0  0  0
 15 16  1  0  0  0  0
 15 17  1  0  0  0  0
 15 18  1  0  0  0  0
 11 19  4  0  0  0  0
 19 20  1  0  0  0  0
 20 21  2  0  0  0  0
 20 22  1  0  0  0  0
 22 23  1  0  0  0  0
 23 24  4  0  0  0  0
 24 25  1  0  0  0  0
 24 26  4  0  0  0  0
 26 27  4  0  0  0  0
 27 28  4  0  0  0  0
 28 29  1  0  0  0  0
 29 30  1  0  0  0  0
 28 31  4  0  0  0  0
 23 31  4  0  0  0  0
 31 32  1  0  0  0  0
 19 33  4  0  0  0  0
 33 34  4  0  0  0  0
  9 34  4  0  0  0  0
 34 35  1  0  0  0  0
  8 36  4  0  0  0  0
  3 36  4  0  0  0  0
 36 37  2  0  0  0  0
M  END
> <IC50(uM)>
0.02

> <Outcome>
1.0

> <BindingDB ID>
1098805; 972651

> <BindingDB MonomerID>
470529

> <BindingDB Ligand Name>
N-(6-chloro-2-fluoro-3-methoxyphenyl)-4-[4-ethyl-3-(hydroxymethyl)-5-oxo-4,5-dihydro-1H-1,2,4-triazol-1-yl]-5-fluoro-2-{[(2S)-1,1,1-trifluoropropan-2-yl]oxy}benzamide::US10815215, Example 189::US11130745, Example 189; N-(6-chloro-2-fluoro-3-methoxyphenyl)-4-[4-ethyl-3-(hydroxymethyl)-5-oxo-4,5-dihydro-1H-1,2,4-triazol-1-yl]-5-fluoro-2-{[(2S)-1,1,1-trifluoropropan-2-yl]oxy}benzamide::US10815215, Example 189

> <Curation/DataSource>
US Patent

> <Article DOI>
?

> <PMID>
?

> <Patent Number>
US11130745; US10815215

> <Authors>
Gradl, SN; Nguyen, D; Eis, K; Gunther, J; Stellfeld, T; Janzer, A; Christian, S; Muller, T; Sheikh, SE; Sykes, DB; Ferrara, SJ; Krober, M; Merz, C; Niehues, M; Schafer, M; Zimmermann, K; Nising, CF; Gradl, SN; Nguyen, D; Eis, K; Gunther, J; Stellfeld, T; Janzer, A; Christian, S; Muller, T; Sheikh, SE; Zhou, HJ; Zhao, C; Sykes, DB; Ferrara, SJ; Liu, K; Krober, M; Merz, C; Niehues, M; Schafer, M; Zimmermann, K; Nising, CF

> <Link to Ligand in BindingDB>
http://www.bindingdb.org/bind/chemsearch/marvin/MolStructure.jsp?monomerid=470529

> <Link to Ligand-Target Pair in BindingDB>
http://www.bindingdb.org/jsp/dbsearch/PrimarySearch_ki.jsp?energyterm=kJ/mole&tag=r21&monomerid=470529&enzyme=Dihydroorotate+dehydrogenase&column=ki&startPg=0&Increment=50&submit=Search

> <PubChem CID>
134470119

> <PubChem SID>
441609705

$$$$

  Mrv2115 07222212352D          

 32 34  0  0  0  0            999 V2000
    0.7145   -3.7125    0.0000 O   0  0  0  0  0  0  0  0  0  0  0  0
    1.4289   -4.1250    0.0000 C   0  0  0  0  0  0  0  0  0  0  0  0
    2.1434   -3.7125    0.0000 O   0  0  0  0  0  0  0  0  0  0  0  0
    1.4289   -4.9500    0.0000 C   0  0  0  0  0  0  0  0  0  0  0  0
    2.0964   -5.4349    0.0000 C   0  0  0  0  0  0  0  0  0  0  0  0
    2.8810   -5.1800    0.0000 C   0  0  0  0  0  0  0  0  0  0  0  0
    3.4941   -5.7320    0.0000 O   0  0  0  0  0  0  0  0  0  0  0  0
    3.0525   -4.3730    0.0000 N   0  0  0  0  0  0  0  0  0  0  0  0
    3.8372   -4.1181    0.0000 C   0  0  0  0  0  0  0  0  0  0  0  0
    4.0087   -3.3111    0.0000 C   0  0  0  0  0  0  0  0  0  0  0  0
    3.3956   -2.7591    0.0000 F   0  0  0  0  0  0  0  0  0  0  0  0
    4.7933   -3.0562    0.0000 C   0  0  0  0  0  0  0  0  0  0  0  0
    4.9648   -2.2492    0.0000 F   0  0  0  0  0  0  0  0  0  0  0  0
    5.4064   -3.6082    0.0000 C   0  0  0  0  0  0  0  0  0  0  0  0
    6.1910   -3.3533    0.0000 C   0  0  0  0  0  0  0  0  0  0  0  0
    6.3625   -2.5463    0.0000 C   0  0  0  0  0  0  0  0  0  0  0  0
    7.1472   -2.2913    0.0000 C   0  0  0  0  0  0  0  0  0  0  0  0
    7.7603   -2.8434    0.0000 C   0  0  0  0  0  0  0  0  0  0  0  0
    7.5887   -3.6503    0.0000 C   0  0  0  0  0  0  0  0  0  0  0  0
    8.2018   -4.2024    0.0000 O   0  0  0  0  0  0  0  0  0  0  0  0
    8.9864   -3.9474    0.0000 C   0  0  0  0  0  0  0  0  0  0  0  0
    9.7711   -3.6925    0.0000 F   0  0  0  0  0  0  0  0  0  0  0  0
    9.2414   -4.7321    0.0000 F   0  0  0  0  0  0  0  0  0  0  0  0
    8.7315   -3.1628    0.0000 F   0  0  0  0  0  0  0  0  0  0  0  0
    6.8041   -3.9053    0.0000 C   0  0  0  0  0  0  0  0  0  0  0  0
    5.2349   -4.4152    0.0000 C   0  0  0  0  0  0  0  0  0  0  0  0
    5.8480   -4.9672    0.0000 F   0  0  0  0  0  0  0  0  0  0  0  0
    4.4502   -4.6701    0.0000 C   0  0  0  0  0  0  0  0  0  0  0  0
    4.2787   -5.4771    0.0000 F   0  0  0  0  0  0  0  0  0  0  0  0
    1.8414   -6.2195    0.0000 C   0  0  0  0  0  0  0  0  0  0  0  0
    1.0164   -6.2195    0.0000 C   0  0  0  0  0  0  0  0  0  0  0  0
    0.7615   -5.4349    0.0000 C   0  0  0  0  0  0  0  0  0  0  0  0
  1  2  2  0  0  0  0
  2  3  1  0  0  0  0
  2  4  1  0  0  0  0
  4  5  2  0  0  0  0
  5  6  1  0  0  0  0
  6  7  2  0  0  0  0
  6  8  1  0  0  0  0
  8  9  1  0  0  0  0
  9 10  4  0  0  0  0
 10 11  1  0  0  0  0
 10 12  4  0  0  0  0
 12 13  1  0  0  0  0
 12 14  4  0  0  0  0
 14 15  1  0  0  0  0
 15 16  4  0  0  0  0
 16 17  4  0  0  0  0
 17 18  4  0  0  0  0
 18 19  4  0  0  0  0
 19 20  1  0  0  0  0
 20 21  1  0  0  0  0
 21 22  1  0  0  0  0
 21 23  1  0  0  0  0
 21 24  1  0  0  0  0
 19 25  4  0  0  0  0
 15 25  4  0  0  0  0
 14 26  4  0  0  0  0
 26 27  1  0  0  0  0
 26 28  4  0  0  0  0
  9 28  4  0  0  0  0
 28 29  1  0  0  0  0
  5 30  1  0  0  0  0
 30 31  1  0  0  0  0
 31 32  1  0  0  0  0
  4 32  1  0  0  0  0
M  END
> <IC50(uM)>
0.006999999999999999

> <Outcome>
1.0

> <BindingDB ID>
50319882; 50251730; 28078

> <BindingDB MonomerID>
15344

> <BindingDB Ligand Name>
2-({2,3,5,6-tetrafluoro-4-[3-(trifluoromethoxy)phenyl]phenyl}carbamoyl)cyclopent-1-ene-1-carboxylic acid::CHEMBL154623::Compound 5

> <Curation/DataSource>
ChEMBL; Curated from the literature by BindingDB

> <Article DOI>
10.1016/j.bmcl.2005.07.053; 10.1016/j.bmcl.2003.10.021; 10.1021/jm0506975

> <PMID>
16143532; 14684297; 16480261

> <Patent Number>
?

> <Authors>
Leban, J; Kralik, M; Mies, J; Gassen, M; Tentschert, K; Baumgartner, R; Leban, J; Saeb, W; Garcia, G; Baumgartner, R; Kramer, B; Baumgartner, R; Walloschek, M; Kralik, M; Gotschlich, A; Tasler, S; Mies, J; Leban, J

> <Link to Ligand in BindingDB>
http://www.bindingdb.org/bind/chemsearch/marvin/MolStructure.jsp?monomerid=15344

> <Link to Ligand-Target Pair in BindingDB>
http://www.bindingdb.org/jsp/dbsearch/PrimarySearch_ki.jsp?energyterm=kJ/mole&tag=r21&monomerid=15344&enzyme=Dihydroorotate+dehydrogenase&column=ki&startPg=0&Increment=50&submit=Search

> <PubChem CID>
10457096

> <PubChem SID>
46515648

$$$$

  Mrv2115 07222212352D          

 37 41  0  0  0  0            999 V2000
   -6.3587   -4.2703    0.0000 C   0  0  0  0  0  0  0  0  0  0  0  0
   -6.7712   -3.5558    0.0000 C   0  0  0  0  0  0  0  0  0  0  0  0
   -7.5962   -3.5558    0.0000 O   0  0  0  0  0  0  0  0  0  0  0  0
   -6.3587   -2.8414    0.0000 N   0  0  0  0  0  0  0  0  0  0  0  0
   -6.7712   -2.1269    0.0000 C   0  0  0  0  0  0  0  0  0  0  0  0
   -7.5962   -2.1269    0.0000 C   0  0  0  0  0  0  0  0  0  0  0  0
   -8.0087   -1.4124    0.0000 C   0  0  0  0  0  0  0  0  0  0  0  0
   -7.5962   -0.6979    0.0000 C   0  0  0  0  0  0  0  0  0  0  0  0
   -6.7712   -0.6979    0.0000 C   0  0  0  0  0  0  0  0  0  0  0  0
   -6.3587   -1.4124    0.0000 C   0  0  0  0  0  0  0  0  0  0  0  0
   -5.5337   -1.4124    0.0000 C   0  0  0  0  0  0  0  0  0  0  0  0
   -5.1212   -0.6979    0.0000 O   0  0  0  0  0  0  0  0  0  0  0  0
   -4.2962   -0.6979    0.0000 C   0  0  0  0  0  0  0  0  0  0  0  0
   -3.8837    0.0165    0.0000 C   0  0  0  0  0  0  0  0  0  0  0  0
   -3.0587    0.0165    0.0000 C   0  0  0  0  0  0  0  0  0  0  0  0
   -2.6462   -0.6979    0.0000 C   0  0  0  0  0  0  0  0  0  0  0  0
   -1.8212   -0.6979    0.0000 C   0  0  0  0  0  0  0  0  0  0  0  0
   -1.4087    0.0165    0.0000 C   0  0  0  0  0  0  0  0  0  0  0  0
   -0.5837    0.0165    0.0000 C   0  0  0  0  0  0  0  0  0  0  0  0
   -0.1712   -0.6979    0.0000 C   0  0  0  0  0  0  0  0  0  0  0  0
    0.6538   -0.6979    0.0000 C   0  0  0  0  0  0  0  0  0  0  0  0
    1.1387   -0.0305    0.0000 N   0  0  0  0  0  0  0  0  0  0  0  0
    1.9233   -0.2854    0.0000 C   0  0  0  0  0  0  0  0  0  0  0  0
    2.6378    0.1271    0.0000 C   0  0  0  0  0  0  0  0  0  0  0  0
    2.6378    0.9521    0.0000 C   0  0  0  0  0  0  0  0  0  0  0  0
    3.3523    1.3646    0.0000 O   0  0  0  0  0  0  0  0  0  0  0  0
    1.9233    1.3646    0.0000 O   0  0  0  0  0  0  0  0  0  0  0  0
    3.3523   -0.2854    0.0000 C   0  0  0  0  0  0  0  0  0  0  0  0
    3.3523   -1.1104    0.0000 C   0  0  0  0  0  0  0  0  0  0  0  0
    4.0668   -1.5229    0.0000 C   0  0  0  0  0  0  0  0  0  0  0  0
    2.6378   -1.5229    0.0000 C   0  0  0  0  0  0  0  0  0  0  0  0
    1.9233   -1.1104    0.0000 C   0  0  0  0  0  0  0  0  0  0  0  0
    1.1387   -1.3654    0.0000 N   0  0  0  0  0  0  0  0  0  0  0  0
   -0.5837   -1.4124    0.0000 C   0  0  0  0  0  0  0  0  0  0  0  0
   -1.4087   -1.4124    0.0000 C   0  0  0  0  0  0  0  0  0  0  0  0
   -3.0587   -1.4124    0.0000 C   0  0  0  0  0  0  0  0  0  0  0  0
   -3.8837   -1.4124    0.0000 C   0  0  0  0  0  0  0  0  0  0  0  0
  1  2  1  0  0  0  0
  2  3  2  0  0  0  0
  2  4  1  0  0  0  0
  4  5  1  0  0  0  0
  5  6  4  0  0  0  0
  6  7  4  0  0  0  0
  7  8  4  0  0  0  0
  8  9  4  0  0  0  0
  9 10  4  0  0  0  0
  5 10  4  0  0  0  0
 10 11  1  0  0  0  0
 11 12  1  0  0  0  0
 12 13  1  0  0  0  0
 13 14  4  0  0  0  0
 14 15  4  0  0  0  0
 15 16  4  0  0  0  0
 16 17  1  0  0  0  0
 17 18  4  0  0  0  0
 18 19  4  0  0  0  0
 19 20  4  0  0  0  0
 20 21  1  0  0  0  0
 21 22  4  0  0  0  0
 22 23  4  0  0  0  0
 23 24  4  0  0  0  0
 24 25  1  0  0  0  0
 25 26  2  0  0  0  0
 25 27  1  0  0  0  0
 24 28  4  0  0  0  0
 28 29  4  0  0  0  0
 29 30  1  0  0  0  0
 29 31  4  0  0  0  0
 31 32  4  0  0  0  0
 23 32  4  0  0  0  0
 32 33  4  0  0  0  0
 21 33  4  0  0  0  0
 20 34  4  0  0  0  0
 34 35  4  0  0  0  0
 17 35  4  0  0  0  0
 16 36  4  0  0  0  0
 36 37  4  0  0  0  0
 13 37  4  0  0  0  0
M  STY  1   1 DAT
M  SAL   1  1  33
M  SDT   1 MRV_IMPLICIT_H                                        
M  SDD   1     0.5304   -0.4125    DR    ALL  0       0  
M  SED   1 IMPL_H1
M  END
> <IC50(uM)>
0.3

> <Outcome>
1.0

> <BindingDB ID>
50358206

> <BindingDB MonomerID>
50096198

> <BindingDB Ligand Name>
CHEMBL3593804

> <Curation/DataSource>
ChEMBL

> <Article DOI>
10.1016/j.bmc.2015.05.051

> <PMID>
26088338

> <Patent Number>
?

> <Authors>
Abdullah, I; Chee, CF; Lee, YK; Thunuguntla, SS; Satish Reddy, K; Nellore, K; Antony, T; Verma, J; Mun, KW; Othman, S; Subramanya, H; Rahman, NA

> <Link to Ligand in BindingDB>
http://www.bindingdb.org/bind/chemsearch/marvin/MolStructure.jsp?monomerid=50096198

> <Link to Ligand-Target Pair in BindingDB>
http://www.bindingdb.org/jsp/dbsearch/PrimarySearch_ki.jsp?energyterm=kJ/mole&tag=r21&monomerid=50096198&enzyme=Dihydroorotate+dehydrogenase&column=ki&startPg=0&Increment=50&submit=Search

> <PubChem CID>
122182179

> <PubChem SID>
103993765

$$$$

  Mrv2115 07222212352D          

 36 39  0  0  0  0            999 V2000
   -5.1659   -1.4124    0.0000 C   0  0  0  0  0  0  0  0  0  0  0  0
   -5.5784   -0.6979    0.0000 C   0  0  0  0  0  0  0  0  0  0  0  0
   -6.4034   -0.6979    0.0000 C   0  0  0  0  0  0  0  0  0  0  0  0
   -6.8159    0.0165    0.0000 C   0  0  0  0  0  0  0  0  0  0  0  0
   -7.6409    0.0165    0.0000 F   0  0  0  0  0  0  0  0  0  0  0  0
   -6.4034    0.7310    0.0000 C   0  0  0  0  0  0  0  0  0  0  0  0
   -5.5784    0.7310    0.0000 C   0  0  0  0  0  0  0  0  0  0  0  0
   -5.1659    1.4455    0.0000 C   0  0  0  0  0  0  0  0  0  0  0  0
   -5.1659    0.0165    0.0000 C   0  0  0  0  0  0  0  0  0  0  0  0
   -4.3409    0.0165    0.0000 N   0  0  0  0  0  0  0  0  0  0  0  0
   -3.9284   -0.6979    0.0000 C   0  0  0  0  0  0  0  0  0  0  0  0
   -4.3409   -1.4124    0.0000 O   0  0  0  0  0  0  0  0  0  0  0  0
   -3.1034   -0.6979    0.0000 C   0  0  0  0  0  0  0  0  0  0  0  0
   -2.6909    0.0165    0.0000 C   0  0  0  0  0  0  0  0  0  0  0  0
   -1.8659    0.0165    0.0000 C   0  0  0  0  0  0  0  0  0  0  0  0
   -1.4534    0.7310    0.0000 F   0  0  0  0  0  0  0  0  0  0  0  0
   -1.4534   -0.6979    0.0000 C   0  0  0  0  0  0  0  0  0  0  0  0
   -0.6284   -0.6979    0.0000 N   0  0  0  0  0  0  0  0  0  0  0  0
   -0.1435   -1.3654    0.0000 N   0  0  0  0  0  0  0  0  0  0  0  0
    0.6411   -1.1104    0.0000 C   0  0  0  0  0  0  0  0  0  0  0  0
    0.6411   -0.2854    0.0000 N   0  0  0  0  0  0  0  0  0  0  0  0
   -0.1435   -0.0305    0.0000 C   0  0  0  0  0  0  0  0  0  0  0  0
   -0.3984    0.7541    0.0000 O   0  0  0  0  0  0  0  0  0  0  0  0
    1.3556    0.1271    0.0000 C   0  0  0  0  0  0  0  0  0  0  0  0
    2.0701   -0.2854    0.0000 C   0  0  0  0  0  0  0  0  0  0  0  0
    2.0701   -1.1104    0.0000 C   0  0  0  0  0  0  0  0  0  0  0  0
    1.3556   -1.5229    0.0000 C   0  0  0  0  0  0  0  0  0  0  0  0
   -1.8659   -1.4124    0.0000 C   0  0  0  0  0  0  0  0  0  0  0  0
   -2.6909   -1.4124    0.0000 C   0  0  0  0  0  0  0  0  0  0  0  0
   -3.1034   -2.1269    0.0000 O   0  0  0  0  0  0  0  0  0  0  0  0
   -2.6909   -2.8414    0.0000 C   0  0  0  0  0  0  0  0  0  0  0  0
   -1.8659   -2.8414    0.0000 C   0  0  0  0  0  0  0  0  0  0  0  0
   -3.1034   -3.5558    0.0000 C   0  0  0  0  0  0  0  0  0  0  0  0
   -3.8179   -3.1433    0.0000 F   0  0  0  0  0  0  0  0  0  0  0  0
   -2.3890   -3.9683    0.0000 F   0  0  0  0  0  0  0  0  0  0  0  0
   -3.5159   -4.2703    0.0000 F   0  0  0  0  0  0  0  0  0  0  0  0
  1  2  1  0  0  0  0
  2  3  4  0  0  0  0
  3  4  4  0  0  0  0
  4  5  1  0  0  0  0
  4  6  4  0  0  0  0
  6  7  4  0  0  0  0
  7  8  1  0  0  0  0
  7  9  4  0  0  0  0
  2  9  4  0  0  0  0
  9 10  1  0  0  0  0
 10 11  1  0  0  0  0
 11 12  2  0  0  0  0
 11 13  1  0  0  0  0
 13 14  4  0  0  0  0
 14 15  4  0  0  0  0
 15 16  1  0  0  0  0
 15 17  4  0  0  0  0
 17 18  1  0  0  0  0
 18 19  4  0  0  0  0
 19 20  4  0  0  0  0
 20 21  4  0  0  0  0
 21 22  4  0  0  0  0
 18 22  4  0  0  0  0
 22 23  2  0  0  0  0
 21 24  1  0  0  0  0
 24 25  1  0  0  0  0
 25 26  1  0  0  0  0
 26 27  1  0  0  0  0
 20 27  1  0  0  0  0
 17 28  4  0  0  0  0
 28 29  4  0  0  0  0
 13 29  4  0  0  0  0
 29 30  1  0  0  0  0
 30 31  1  0  0  0  0
 31 32  1  0  0  0  0
 31 33  1  0  0  0  0
 33 34  1  0  0  0  0
 33 35  1  0  0  0  0
 33 36  1  0  0  0  0
M  END
> <IC50(uM)>
0.0043

> <Outcome>
1.0

> <BindingDB ID>
1020445

> <BindingDB MonomerID>
490396

> <BindingDB Ligand Name>
5-fluoro-N-(4-fluoro-2,6-dimethylphenyl)-4-(3-oxo-5,6,7,8-tetrahydro[1,2,4]triazolo[4,3-a]pyridin-2(3H)-yl)-2-{[(2S)-1,1,1-trifluoropropan-2-yl]oxy}benzamide::US10968216, Example 64

> <Curation/DataSource>
US Patent

> <Article DOI>
?

> <PMID>
?

> <Patent Number>
US10968216

> <Authors>
Gradl, SN; Nguyen, D; Eis, K; Gunther, J; Stellfeld, T; Janzer, A; Christian, S; Mueller, T; Sheikh, SE; Zhou, HJ; Zhao, C; Sykes, DB; Ferrara, SJ; Liu, K; Herbert, SA; Merz, C; Niehues, M; Nising, CF; Schafer, M; Zimmermann, K; Knablein, J; Thede, K; Faupel, T

> <Link to Ligand in BindingDB>
http://www.bindingdb.org/bind/chemsearch/marvin/MolStructure.jsp?monomerid=490396

> <Link to Ligand-Target Pair in BindingDB>
http://www.bindingdb.org/jsp/dbsearch/PrimarySearch_ki.jsp?energyterm=kJ/mole&tag=r21&monomerid=490396&enzyme=Dihydroorotate+dehydrogenase&column=ki&startPg=0&Increment=50&submit=Search

> <PubChem CID>
134474264

> <PubChem SID>
447117123

$$$$

  Mrv2115 07222212352D          

 31 33  0  0  0  0            999 V2000
    1.4289   -6.6000    0.0000 C   0  0  0  0  0  0  0  0  0  0  0  0
    2.1434   -6.1875    0.0000 C   0  0  0  0  0  0  0  0  0  0  0  0
    2.8579   -6.6000    0.0000 C   0  0  0  0  0  0  0  0  0  0  0  0
    2.8579   -7.4250    0.0000 O   0  0  0  0  0  0  0  0  0  0  0  0
    3.5724   -6.1875    0.0000 C   0  0  0  0  0  0  0  0  0  0  0  0
    3.5724   -5.3625    0.0000 C   0  0  0  0  0  0  0  0  0  0  0  0
    3.5724   -4.5375    0.0000 N   0  0  0  0  0  0  0  0  0  0  0  0
    4.2868   -6.6000    0.0000 C   0  0  0  0  0  0  0  0  0  0  0  0
    4.2868   -7.4250    0.0000 O   0  0  0  0  0  0  0  0  0  0  0  0
    5.0013   -6.1875    0.0000 N   0  0  0  0  0  0  0  0  0  0  0  0
    5.7158   -6.6000    0.0000 C   0  0  0  0  0  0  0  0  0  0  0  0
    6.4302   -6.1875    0.0000 C   0  0  0  0  0  0  0  0  0  0  0  0
    7.1447   -6.6000    0.0000 C   0  0  0  0  0  0  0  0  0  0  0  0
    7.1447   -7.4250    0.0000 C   0  0  0  0  0  0  0  0  0  0  0  0
    7.8592   -7.8375    0.0000 C   0  0  0  0  0  0  0  0  0  0  0  0
    8.5737   -7.4250    0.0000 C   0  0  0  0  0  0  0  0  0  0  0  0
    9.2881   -7.8375    0.0000 C   0  0  0  0  0  0  0  0  0  0  0  0
    9.2881   -8.6625    0.0000 C   0  0  0  0  0  0  0  0  0  0  0  0
    8.5737   -9.0750    0.0000 C   0  0  0  0  0  0  0  0  0  0  0  0
    8.5737   -9.9000    0.0000 O   0  0  0  0  0  0  0  0  0  0  0  0
    9.2881  -10.3125    0.0000 C   0  0  0  0  0  0  0  0  0  0  0  0
   10.0850  -10.0990    0.0000 C   0  0  0  0  0  0  0  0  0  0  0  0
   10.2985  -10.8959    0.0000 C   0  0  0  0  0  0  0  0  0  0  0  0
    9.5016  -11.1094    0.0000 C   0  0  0  0  0  0  0  0  0  0  0  0
    7.8592   -8.6625    0.0000 C   0  0  0  0  0  0  0  0  0  0  0  0
    6.4302   -7.8375    0.0000 C   0  0  0  0  0  0  0  0  0  0  0  0
    6.4302   -8.6625    0.0000 C   0  0  0  0  0  0  0  0  0  0  0  0
    5.7158   -9.0750    0.0000 O   0  0  0  0  0  0  0  0  0  0  0  0
    7.1447   -9.0750    0.0000 O   0  0  0  0  0  0  0  0  0  0  0  0
    7.1447   -9.9000    0.0000 C   0  0  0  0  0  0  0  0  0  0  0  0
    5.7158   -7.4250    0.0000 C   0  0  0  0  0  0  0  0  0  0  0  0
  1  2  1  0  0  0  0
  2  3  1  0  0  0  0
  3  4  2  0  0  0  0
  3  5  1  0  0  0  0
  5  6  1  0  0  0  0
  6  7  3  0  0  0  0
  5  8  1  0  0  0  0
  8  9  2  0  0  0  0
  8 10  1  0  0  0  0
 10 11  1  0  0  0  0
 11 12  4  0  0  0  0
 12 13  4  0  0  0  0
 13 14  4  0  0  0  0
 14 15  1  0  0  0  0
 15 16  4  0  0  0  0
 16 17  4  0  0  0  0
 17 18  4  0  0  0  0
 18 19  4  0  0  0  0
 19 20  1  0  0  0  0
 20 21  1  0  0  0  0
 21 22  1  0  0  0  0
 22 23  1  0  0  0  0
 23 24  1  0  0  0  0
 21 24  1  0  0  0  0
 19 25  4  0  0  0  0
 15 25  4  0  0  0  0
 14 26  4  0  0  0  0
 26 27  1  0  0  0  0
 27 28  2  0  0  0  0
 27 29  1  0  0  0  0
 29 30  1  0  0  0  0
 26 31  4  0  0  0  0
 11 31  4  0  0  0  0
M  END
> <IC50(uM)>
0.031

> <Outcome>
1.0

> <BindingDB ID>
50707388

> <BindingDB MonomerID>
50359709

> <BindingDB Ligand Name>
CHEMBL1929453

> <Curation/DataSource>
ChEMBL

> <Article DOI>
10.1016/j.bmcl.2011.10.052

> <PMID>
22078215

> <Patent Number>
?

> <Authors>
Erra, M; Moreno, I; Sanahuja, J; Andres, M; Reinoso, RF; Lozoya, E; Pizcueta, P; Godessart, N; Castro-Palomino, JC

> <Link to Ligand in BindingDB>
http://www.bindingdb.org/bind/chemsearch/marvin/MolStructure.jsp?monomerid=50359709

> <Link to Ligand-Target Pair in BindingDB>
http://www.bindingdb.org/jsp/dbsearch/PrimarySearch_ki.jsp?energyterm=kJ/mole&tag=r21&monomerid=50359709&enzyme=Dihydroorotate+dehydrogenase&column=ki&startPg=0&Increment=50&submit=Search

> <PubChem CID>
91930457

> <PubChem SID>
136963733

$$$$

  Mrv2115 07222212352D          

 32 34  0  0  0  0            999 V2000
   -2.1434   -1.2375    0.0000 C   0  0  0  0  0  0  0  0  0  0  0  0
   -1.4289   -1.6500    0.0000 C   0  0  0  0  0  0  0  0  0  0  0  0
   -1.4289   -2.4750    0.0000 C   0  0  0  0  0  0  0  0  0  0  0  0
   -0.7145   -1.2375    0.0000 C   0  0  0  0  0  0  0  0  0  0  0  0
    0.0000   -1.6500    0.0000 C   0  0  0  0  0  0  0  0  0  0  0  0
    0.0000   -2.4750    0.0000 C   0  0  0  0  0  0  0  0  0  0  0  0
    0.7145   -1.2375    0.0000 O   0  0  0  0  0  0  0  0  0  0  0  0
    0.7145   -0.4125    0.0000 C   0  0  0  0  0  0  0  0  0  0  0  0
    0.0000    0.0000    0.0000 C   0  0  0  0  0  0  0  0  0  0  0  0
    0.0000    0.8250    0.0000 C   0  0  0  0  0  0  0  0  0  0  0  0
   -0.7145    1.2375    0.0000 N   0  0  0  0  0  0  0  0  0  0  0  0
   -1.4681    0.9019    0.0000 N   0  0  0  0  0  0  0  0  0  0  0  0
   -2.0202    1.5150    0.0000 C   0  0  0  0  0  0  0  0  0  0  0  0
   -2.8407    1.4288    0.0000 C   0  0  0  0  0  0  0  0  0  0  0  0
   -3.3256    2.0962    0.0000 C   0  0  0  0  0  0  0  0  0  0  0  0
   -3.1762    0.6751    0.0000 C   0  0  0  0  0  0  0  0  0  0  0  0
   -1.6077    2.2295    0.0000 N   0  0  0  0  0  0  0  0  0  0  0  0
   -1.9432    2.9832    0.0000 C   0  0  0  0  0  0  0  0  0  0  0  0
   -0.8007    2.0580    0.0000 C   0  0  0  0  0  0  0  0  0  0  0  0
   -0.1876    2.6100    0.0000 O   0  0  0  0  0  0  0  0  0  0  0  0
    0.7145    1.2375    0.0000 C   0  0  0  0  0  0  0  0  0  0  0  0
    0.7145    2.0625    0.0000 F   0  0  0  0  0  0  0  0  0  0  0  0
    1.4289    0.8250    0.0000 C   0  0  0  0  0  0  0  0  0  0  0  0
    1.4289    0.0000    0.0000 C   0  0  0  0  0  0  0  0  0  0  0  0
    2.1434   -0.4125    0.0000 C   0  0  0  0  0  0  0  0  0  0  0  0
    2.1434   -1.2375    0.0000 O   0  0  0  0  0  0  0  0  0  0  0  0
    2.8579    0.0000    0.0000 N   0  0  0  0  0  0  0  0  0  0  0  0
    2.8579    0.8250    0.0000 C   0  0  0  0  0  0  0  0  0  0  0  0
    2.1904    1.3099    0.0000 C   0  0  0  0  0  0  0  0  0  0  0  0
    2.4454    2.0945    0.0000 C   0  0  0  0  0  0  0  0  0  0  0  0
    3.2704    2.0945    0.0000 O   0  0  0  0  0  0  0  0  0  0  0  0
    3.5253    1.3099    0.0000 C   0  0  0  0  0  0  0  0  0  0  0  0
  1  2  1  0  0  0  0
  2  3  1  0  0  0  0
  2  4  1  0  0  0  0
  4  5  1  0  0  0  0
  5  6  1  0  0  0  0
  5  7  1  0  0  0  0
  7  8  1  0  0  0  0
  8  9  4  0  0  0  0
  9 10  4  0  0  0  0
 10 11  1  0  0  0  0
 11 12  4  0  0  0  0
 12 13  4  0  0  0  0
 13 14  1  0  0  0  0
 14 15  1  0  0  0  0
 14 16  1  0  0  0  0
 13 17  4  0  0  0  0
 17 18  1  0  0  0  0
 17 19  4  0  0  0  0
 11 19  4  0  0  0  0
 19 20  2  0  0  0  0
 10 21  4  0  0  0  0
 21 22  1  0  0  0  0
 21 23  4  0  0  0  0
 23 24  4  0  0  0  0
  8 24  4  0  0  0  0
 24 25  1  0  0  0  0
 25 26  2  0  0  0  0
 25 27  1  0  0  0  0
 27 28  1  0  0  0  0
 28 29  1  0  0  0  0
 29 30  1  0  0  0  0
 30 31  1  0  0  0  0
 31 32  1  0  0  0  0
 28 32  1  0  0  0  0
M  END
> <IC50(uM)>
12.5

> <Outcome>
0.0

> <BindingDB ID>
972605; 1098759; 1098760; 972606

> <BindingDB MonomerID>
470488

> <BindingDB Ligand Name>
5-fluoro-4-[4-methyl-5-oxo-3-(propan-2-yl)-4,5-dihydro-1H-1,2,4-triazol-1-yl]-2-{[(2S)-4-methylpentan-2-yl]oxy}-N-(tetrahydrofuran-3-yl)benzamide, Mixture of Stereoisomers::US10815215, Example 147; 5-fluoro-4-[4-methyl-5-oxo-3-(propan-2-yl)-4,5-dihydro-1H-1,2,4-triazol-1-yl]-2-{[(2S)-4-methylpentan-2-yl]oxy}-N-(tetrahydrofuran-3-yl)benzamide, Mixture of Stereoisomers::US10815215, Example 147::US11130745, Example 147

> <Curation/DataSource>
US Patent

> <Article DOI>
?

> <PMID>
?

> <Patent Number>
US10815215; US11130745

> <Authors>
Gradl, SN; Nguyen, D; Eis, K; Gunther, J; Stellfeld, T; Janzer, A; Christian, S; Muller, T; Sheikh, SE; Zhou, HJ; Zhao, C; Sykes, DB; Ferrara, SJ; Liu, K; Krober, M; Merz, C; Niehues, M; Schafer, M; Zimmermann, K; Nising, CF; Gradl, SN; Nguyen, D; Eis, K; Gunther, J; Stellfeld, T; Janzer, A; Christian, S; Muller, T; Sheikh, SE; Sykes, DB; Ferrara, SJ; Krober, M; Merz, C; Niehues, M; Schafer, M; Zimmermann, K; Nising, CF

> <Link to Ligand in BindingDB>
http://www.bindingdb.org/bind/chemsearch/marvin/MolStructure.jsp?monomerid=470488

> <Link to Ligand-Target Pair in BindingDB>
http://www.bindingdb.org/jsp/dbsearch/PrimarySearch_ki.jsp?energyterm=kJ/mole&tag=r21&monomerid=470488&enzyme=Dihydroorotate+dehydrogenase&column=ki&startPg=0&Increment=50&submit=Search

> <PubChem CID>
134470293

> <PubChem SID>
441609665

$$$$

  Mrv2115 07222212352D          

 26 28  0  0  0  0            999 V2000
    0.7145   -3.7125    0.0000 O   0  0  0  0  0  0  0  0  0  0  0  0
   -0.0000   -4.1250    0.0000 C   0  0  0  0  0  0  0  0  0  0  0  0
   -0.0000   -4.9500    0.0000 O   0  0  0  0  0  0  0  0  0  0  0  0
   -0.7145   -3.7125    0.0000 C   0  0  0  0  0  0  0  0  0  0  0  0
   -1.4289   -4.1250    0.0000 N   0  0  0  0  0  0  0  0  0  0  0  0
   -2.1434   -3.7125    0.0000 C   0  0  0  0  0  0  0  0  0  0  0  0
   -2.8579   -4.1250    0.0000 O   0  0  0  0  0  0  0  0  0  0  0  0
   -2.1434   -2.8875    0.0000 N   0  0  0  0  0  0  0  0  0  0  0  0
   -1.4289   -2.4750    0.0000 C   0  0  0  0  0  0  0  0  0  0  0  0
   -1.4289   -1.6500    0.0000 O   0  0  0  0  0  0  0  0  0  0  0  0
   -0.7145   -2.8875    0.0000 C   0  0  0  0  0  0  0  0  0  0  0  0
    0.0000   -2.4750    0.0000 C   0  0  0  0  0  0  0  0  0  0  0  0
    0.0000   -1.6500    0.0000 C   0  0  0  0  0  0  0  0  0  0  0  0
    0.7145   -1.2375    0.0000 C   0  0  0  0  0  0  0  0  0  0  0  0
    0.7145   -0.4125    0.0000 C   0  0  0  0  0  0  0  0  0  0  0  0
    1.4289    0.0000    0.0000 C   0  0  0  0  0  0  0  0  0  0  0  0
    2.1434   -0.4125    0.0000 C   0  0  0  0  0  0  0  0  0  0  0  0
    2.8579    0.0000    0.0000 C   0  0  0  0  0  0  0  0  0  0  0  0
    2.8579    0.8250    0.0000 C   0  0  0  0  0  0  0  0  0  0  0  0
    2.1434    1.2375    0.0000 O   0  0  0  0  0  0  0  0  0  0  0  0
    3.5724    1.2375    0.0000 O   0  0  0  0  0  0  0  0  0  0  0  0
    3.5724   -0.4125    0.0000 C   0  0  0  0  0  0  0  0  0  0  0  0
    3.5724   -1.2375    0.0000 C   0  0  0  0  0  0  0  0  0  0  0  0
    2.8579   -1.6500    0.0000 C   0  0  0  0  0  0  0  0  0  0  0  0
    2.1434   -1.2375    0.0000 C   0  0  0  0  0  0  0  0  0  0  0  0
    1.4289   -1.6500    0.0000 C   0  0  0  0  0  0  0  0  0  0  0  0
  1  2  2  0  0  0  0
  2  3  1  0  0  0  0
  2  4  1  0  0  0  0
  4  5  4  0  0  0  0
  5  6  4  0  0  0  0
  6  7  2  0  0  0  0
  6  8  4  0  0  0  0
  8  9  4  0  0  0  0
  9 10  2  0  0  0  0
  9 11  4  0  0  0  0
  4 11  4  0  0  0  0
 11 12  1  0  0  0  0
 12 13  1  0  0  0  0
 13 14  1  0  0  0  0
 14 15  4  0  0  0  0
 15 16  4  0  0  0  0
 16 17  4  0  0  0  0
 17 18  4  0  0  0  0
 18 19  1  0  0  0  0
 19 20  2  0  0  0  0
 19 21  1  0  0  0  0
 18 22  4  0  0  0  0
 22 23  4  0  0  0  0
 23 24  4  0  0  0  0
 24 25  4  0  0  0  0
 17 25  4  0  0  0  0
 25 26  4  0  0  0  0
 14 26  4  0  0  0  0
M  STY  2   1 DAT   2 DAT
M  SAL   1  1   5
M  SDT   1 MRV_IMPLICIT_H                                        
M  SDD   1     0.6482   -0.4125    DR    ALL  0       0  
M  SED   1 IMPL_H1
M  SAL   2  1   8
M  SDT   2 MRV_IMPLICIT_H                                        
M  SDD   2     0.5304   -0.4125    DR    ALL  0       0  
M  SED   2 IMPL_H1
M  END
> <IC50(uM)>
5.0

> <Outcome>
0.0

> <BindingDB ID>
50555404

> <BindingDB MonomerID>
50211944

> <BindingDB Ligand Name>
CHEMBL3959702

> <Curation/DataSource>
ChEMBL

> <Article DOI>
10.1016/j.bmc.2017.01.009

> <PMID>
28118956

> <Patent Number>
?

> <Authors>
Inaoka, DK; Iida, M; Hashimoto, S; Tabuchi, T; Kuranaga, T; Balogun, EO; Honma, T; Tanaka, A; Harada, S; Nara, T; Kita, K; Inoue, M

> <Link to Ligand in BindingDB>
http://www.bindingdb.org/bind/chemsearch/marvin/MolStructure.jsp?monomerid=50211944

> <Link to Ligand-Target Pair in BindingDB>
http://www.bindingdb.org/jsp/dbsearch/PrimarySearch_ki.jsp?energyterm=kJ/mole&tag=r21&monomerid=50211944&enzyme=Dihydroorotate+dehydrogenase&column=ki&startPg=0&Increment=50&submit=Search

> <PubChem CID>
134155043

> <PubChem SID>
104088022

$$$$

  Mrv2115 07222212352D          

 27 28  0  0  0  0            999 V2000
    1.4289   -6.6000    0.0000 C   0  0  0  0  0  0  0  0  0  0  0  0
    2.1434   -6.1875    0.0000 C   0  0  0  0  0  0  0  0  0  0  0  0
    2.8579   -6.6000    0.0000 C   0  0  0  0  0  0  0  0  0  0  0  0
    2.8579   -7.4250    0.0000 O   0  0  0  0  0  0  0  0  0  0  0  0
    3.5724   -6.1875    0.0000 C   0  0  0  0  0  0  0  0  0  0  0  0
    3.5724   -5.3625    0.0000 C   0  0  0  0  0  0  0  0  0  0  0  0
    3.5724   -4.5375    0.0000 N   0  0  0  0  0  0  0  0  0  0  0  0
    4.2868   -6.6000    0.0000 C   0  0  0  0  0  0  0  0  0  0  0  0
    4.2868   -7.4250    0.0000 O   0  0  0  0  0  0  0  0  0  0  0  0
    5.0013   -6.1875    0.0000 N   0  0  0  0  0  0  0  0  0  0  0  0
    5.7158   -6.6000    0.0000 C   0  0  0  0  0  0  0  0  0  0  0  0
    6.4302   -6.1875    0.0000 C   0  0  0  0  0  0  0  0  0  0  0  0
    7.1447   -6.6000    0.0000 C   0  0  0  0  0  0  0  0  0  0  0  0
    7.1447   -7.4250    0.0000 C   0  0  0  0  0  0  0  0  0  0  0  0
    7.8592   -7.8375    0.0000 C   0  0  0  0  0  0  0  0  0  0  0  0
    8.5737   -7.4250    0.0000 C   0  0  0  0  0  0  0  0  0  0  0  0
    9.2881   -7.8375    0.0000 C   0  0  0  0  0  0  0  0  0  0  0  0
    9.2881   -8.6625    0.0000 C   0  0  0  0  0  0  0  0  0  0  0  0
    8.5737   -9.0750    0.0000 C   0  0  0  0  0  0  0  0  0  0  0  0
    8.5737   -9.9000    0.0000 Cl  0  0  0  0  0  0  0  0  0  0  0  0
    7.8592   -8.6625    0.0000 C   0  0  0  0  0  0  0  0  0  0  0  0
    6.4302   -7.8375    0.0000 C   0  0  0  0  0  0  0  0  0  0  0  0
    6.4302   -8.6625    0.0000 C   0  0  0  0  0  0  0  0  0  0  0  0
    5.7158   -9.0750    0.0000 O   0  0  0  0  0  0  0  0  0  0  0  0
    7.1447   -9.0750    0.0000 O   0  0  0  0  0  0  0  0  0  0  0  0
    7.1447   -9.9000    0.0000 C   0  0  0  0  0  0  0  0  0  0  0  0
    5.7158   -7.4250    0.0000 C   0  0  0  0  0  0  0  0  0  0  0  0
  1  2  1  0  0  0  0
  2  3  1  0  0  0  0
  3  4  2  0  0  0  0
  3  5  1  0  0  0  0
  5  6  1  0  0  0  0
  6  7  3  0  0  0  0
  5  8  1  0  0  0  0
  8  9  2  0  0  0  0
  8 10  1  0  0  0  0
 10 11  1  0  0  0  0
 11 12  4  0  0  0  0
 12 13  4  0  0  0  0
 13 14  4  0  0  0  0
 14 15  1  0  0  0  0
 15 16  4  0  0  0  0
 16 17  4  0  0  0  0
 17 18  4  0  0  0  0
 18 19  4  0  0  0  0
 19 20  1  0  0  0  0
 19 21  4  0  0  0  0
 15 21  4  0  0  0  0
 14 22  4  0  0  0  0
 22 23  1  0  0  0  0
 23 24  2  0  0  0  0
 23 25  1  0  0  0  0
 25 26  1  0  0  0  0
 22 27  4  0  0  0  0
 11 27  4  0  0  0  0
M  END
> <IC50(uM)>
0.031

> <Outcome>
1.0

> <BindingDB ID>
50707372

> <BindingDB MonomerID>
50359693

> <BindingDB Ligand Name>
CHEMBL1929437

> <Curation/DataSource>
ChEMBL

> <Article DOI>
10.1016/j.bmcl.2011.10.052

> <PMID>
22078215

> <Patent Number>
?

> <Authors>
Erra, M; Moreno, I; Sanahuja, J; Andres, M; Reinoso, RF; Lozoya, E; Pizcueta, P; Godessart, N; Castro-Palomino, JC

> <Link to Ligand in BindingDB>
http://www.bindingdb.org/bind/chemsearch/marvin/MolStructure.jsp?monomerid=50359693

> <Link to Ligand-Target Pair in BindingDB>
http://www.bindingdb.org/jsp/dbsearch/PrimarySearch_ki.jsp?energyterm=kJ/mole&tag=r21&monomerid=50359693&enzyme=Dihydroorotate+dehydrogenase&column=ki&startPg=0&Increment=50&submit=Search

> <PubChem CID>
91930441

> <PubChem SID>
136963717

$$$$

  Mrv2115 07222212352D          

 36 40  0  0  0  0            999 V2000
    3.9934    2.4750    0.0000 O   0  0  0  0  0  0  0  0  0  0  0  0
    3.2789    2.0625    0.0000 C   0  0  0  0  0  0  0  0  0  0  0  0
    2.5645    2.4750    0.0000 O   0  0  0  0  0  0  0  0  0  0  0  0
    3.2789    1.2375    0.0000 C   0  0  0  0  0  0  0  0  0  0  0  0
    3.9934    0.8250    0.0000 C   0  0  0  0  0  0  0  0  0  0  0  0
    3.9934    0.0000    0.0000 C   0  0  0  0  0  0  0  0  0  0  0  0
    3.2789   -0.4125    0.0000 C   0  0  0  0  0  0  0  0  0  0  0  0
    2.5645    0.0000    0.0000 C   0  0  0  0  0  0  0  0  0  0  0  0
    1.7798   -0.2549    0.0000 N   0  0  0  0  0  0  0  0  0  0  0  0
    1.2949    0.4125    0.0000 C   0  0  0  0  0  0  0  0  0  0  0  0
    0.4699    0.4125    0.0000 C   0  0  0  0  0  0  0  0  0  0  0  0
    0.0574   -0.3020    0.0000 C   0  0  0  0  0  0  0  0  0  0  0  0
    0.4699   -1.0164    0.0000 F   0  0  0  0  0  0  0  0  0  0  0  0
   -0.7676   -0.3020    0.0000 C   0  0  0  0  0  0  0  0  0  0  0  0
   -1.1801   -1.0164    0.0000 F   0  0  0  0  0  0  0  0  0  0  0  0
   -1.1801    0.4125    0.0000 C   0  0  0  0  0  0  0  0  0  0  0  0
   -2.0051    0.4125    0.0000 C   0  0  0  0  0  0  0  0  0  0  0  0
   -2.4176   -0.3020    0.0000 C   0  0  0  0  0  0  0  0  0  0  0  0
   -3.2426   -0.3020    0.0000 C   0  0  0  0  0  0  0  0  0  0  0  0
   -3.6551    0.4125    0.0000 C   0  0  0  0  0  0  0  0  0  0  0  0
   -3.2426    1.1270    0.0000 C   0  0  0  0  0  0  0  0  0  0  0  0
   -3.6551    1.8414    0.0000 O   0  0  0  0  0  0  0  0  0  0  0  0
   -4.4801    1.8414    0.0000 C   0  0  0  0  0  0  0  0  0  0  0  0
   -4.8926    2.5559    0.0000 C   0  0  0  0  0  0  0  0  0  0  0  0
   -5.7176    2.5559    0.0000 C   0  0  0  0  0  0  0  0  0  0  0  0
   -6.1301    3.2704    0.0000 C   0  0  0  0  0  0  0  0  0  0  0  0
   -5.7176    3.9849    0.0000 C   0  0  0  0  0  0  0  0  0  0  0  0
   -4.8926    3.9849    0.0000 C   0  0  0  0  0  0  0  0  0  0  0  0
   -4.4801    3.2704    0.0000 C   0  0  0  0  0  0  0  0  0  0  0  0
   -2.4176    1.1270    0.0000 C   0  0  0  0  0  0  0  0  0  0  0  0
   -0.7676    1.1270    0.0000 C   0  0  0  0  0  0  0  0  0  0  0  0
   -1.1801    1.8414    0.0000 F   0  0  0  0  0  0  0  0  0  0  0  0
    0.0574    1.1270    0.0000 C   0  0  0  0  0  0  0  0  0  0  0  0
    0.4699    1.8414    0.0000 F   0  0  0  0  0  0  0  0  0  0  0  0
    1.7798    1.0799    0.0000 N   0  0  0  0  0  0  0  0  0  0  0  0
    2.5645    0.8250    0.0000 C   0  0  0  0  0  0  0  0  0  0  0  0
  1  2  2  0  0  0  0
  2  3  1  0  0  0  0
  2  4  1  0  0  0  0
  4  5  4  0  0  0  0
  5  6  4  0  0  0  0
  6  7  4  0  0  0  0
  7  8  4  0  0  0  0
  8  9  4  0  0  0  0
  9 10  4  0  0  0  0
 10 11  1  0  0  0  0
 11 12  4  0  0  0  0
 12 13  1  0  0  0  0
 12 14  4  0  0  0  0
 14 15  1  0  0  0  0
 14 16  4  0  0  0  0
 16 17  1  0  0  0  0
 17 18  4  0  0  0  0
 18 19  4  0  0  0  0
 19 20  4  0  0  0  0
 20 21  4  0  0  0  0
 21 22  1  0  0  0  0
 22 23  1  0  0  0  0
 23 24  1  0  0  0  0
 24 25  4  0  0  0  0
 25 26  4  0  0  0  0
 26 27  4  0  0  0  0
 27 28  4  0  0  0  0
 28 29  4  0  0  0  0
 24 29  4  0  0  0  0
 21 30  4  0  0  0  0
 17 30  4  0  0  0  0
 16 31  4  0  0  0  0
 31 32  1  0  0  0  0
 31 33  4  0  0  0  0
 11 33  4  0  0  0  0
 33 34  1  0  0  0  0
 10 35  4  0  0  0  0
 35 36  4  0  0  0  0
  4 36  4  0  0  0  0
  8 36  4  0  0  0  0
M  STY  1   1 DAT
M  SAL   1  1  35
M  SDT   1 MRV_IMPLICIT_H                                        
M  SDD   1     0.5304   -0.4125    DR    ALL  0       0  
M  SED   1 IMPL_H1
M  END
> <IC50(uM)>
0.026

> <Outcome>
1.0

> <BindingDB ID>
297809

> <BindingDB MonomerID>
155465

> <BindingDB Ligand Name>
US9006454, I107

> <Curation/DataSource>
US Patent

> <Article DOI>
?

> <PMID>
?

> <Patent Number>
US9006454

> <Authors>
Thunuguntla, SS; Subramanya, H; Kunnam, SR; Sanivaru Vijay, SR; Bingi, C; Kusanur, R; Schwarz, M; Arlt, M

> <Link to Ligand in BindingDB>
http://www.bindingdb.org/bind/chemsearch/marvin/MolStructure.jsp?monomerid=155465

> <Link to Ligand-Target Pair in BindingDB>
http://www.bindingdb.org/jsp/dbsearch/PrimarySearch_ki.jsp?energyterm=kJ/mole&tag=r21&monomerid=155465&enzyme=Dihydroorotate+dehydrogenase&column=ki&startPg=0&Increment=50&submit=Search

> <PubChem CID>
88583000

> <PubChem SID>
253658402

$$$$

  Mrv2115 07222212352D          

 23 25  0  0  0  0            999 V2000
    4.0668    2.3479    0.0000 C   0  0  0  0  0  0  0  0  0  0  0  0
    3.3523    1.9354    0.0000 C   0  0  0  0  0  0  0  0  0  0  0  0
    3.3523    1.1104    0.0000 C   0  0  0  0  0  0  0  0  0  0  0  0
    2.6378    0.6979    0.0000 C   0  0  0  0  0  0  0  0  0  0  0  0
    2.6378   -0.1271    0.0000 N   0  0  0  0  0  0  0  0  0  0  0  0
    1.9233   -0.5396    0.0000 C   0  0  0  0  0  0  0  0  0  0  0  0
    1.9233   -1.3646    0.0000 C   0  0  0  0  0  0  0  0  0  0  0  0
    1.2089   -1.7771    0.0000 C   0  0  0  0  0  0  0  0  0  0  0  0
    0.4944   -1.3646    0.0000 C   0  0  0  0  0  0  0  0  0  0  0  0
   -0.2201   -1.7771    0.0000 S   0  0  0  0  0  0  0  0  0  0  0  0
   -0.9345   -2.1896    0.0000 F   0  0  0  0  0  0  0  0  0  0  0  0
   -0.2201   -2.6021    0.0000 F   0  0  0  0  0  0  0  0  0  0  0  0
    0.4944   -2.1896    0.0000 F   0  0  0  0  0  0  0  0  0  0  0  0
   -0.2201   -0.9521    0.0000 F   0  0  0  0  0  0  0  0  0  0  0  0
   -0.9345   -1.3646    0.0000 F   0  0  0  0  0  0  0  0  0  0  0  0
    0.4944   -0.5396    0.0000 C   0  0  0  0  0  0  0  0  0  0  0  0
    1.2089   -0.1271    0.0000 C   0  0  0  0  0  0  0  0  0  0  0  0
    1.9233    1.1104    0.0000 N   0  0  0  0  0  0  0  0  0  0  0  0
    1.1387    0.8555    0.0000 N   0  0  0  0  0  0  0  0  0  0  0  0
    0.6538    1.5229    0.0000 C   0  0  0  0  0  0  0  0  0  0  0  0
    1.1387    2.1904    0.0000 N   0  0  0  0  0  0  0  0  0  0  0  0
    1.9233    1.9354    0.0000 C   0  0  0  0  0  0  0  0  0  0  0  0
    2.6378    2.3479    0.0000 N   0  0  0  0  0  0  0  0  0  0  0  0
  1  2  1  0  0  0  0
  2  3  4  0  0  0  0
  3  4  4  0  0  0  0
  4  5  1  0  0  0  0
  5  6  1  0  0  0  0
  6  7  4  0  0  0  0
  7  8  4  0  0  0  0
  8  9  4  0  0  0  0
  9 10  1  0  0  0  0
 10 11  1  0  0  0  0
 10 12  1  0  0  0  0
 10 13  1  0  0  0  0
 10 14  1  0  0  0  0
 10 15  1  0  0  0  0
  9 16  4  0  0  0  0
 16 17  4  0  0  0  0
  6 17  4  0  0  0  0
  4 18  4  0  0  0  0
 18 19  4  0  0  0  0
 19 20  4  0  0  0  0
 20 21  4  0  0  0  0
 21 22  4  0  0  0  0
 18 22  4  0  0  0  0
 22 23  4  0  0  0  0
  2 23  4  0  0  0  0
M  END
> <IC50(uM)>
100.0

> <Outcome>
0.0

> <BindingDB ID>
50643164

> <BindingDB MonomerID>
50345414

> <BindingDB Ligand Name>
CHEMBL1784567::N-(4-Pentafluorosulfenylphenyl)-5-methyl-[1,2,4]triazolo[1,5-a]pyrimidin-7-amine::US9238653, Table 5, Compound 48

> <Curation/DataSource>
ChEMBL

> <Article DOI>
10.1021/jm200265b

> <PMID>
21517059

> <Patent Number>
?

> <Authors>
Gujjar, R; El Mazouni, F; White, KL; White, J; Creason, S; Shackleford, DM; Deng, X; Charman, WN; Bathurst, I; Burrows, J; Floyd, DM; Matthews, D; Buckner, FS; Charman, SA; Phillips, MA; Rathod, PK

> <Link to Ligand in BindingDB>
http://www.bindingdb.org/bind/chemsearch/marvin/MolStructure.jsp?monomerid=50345414

> <Link to Ligand-Target Pair in BindingDB>
http://www.bindingdb.org/jsp/dbsearch/PrimarySearch_ki.jsp?energyterm=kJ/mole&tag=r21&monomerid=50345414&enzyme=Dihydroorotate+dehydrogenase&column=ki&startPg=0&Increment=50&submit=Search

> <PubChem CID>
53257300

> <PubChem SID>
131348350

$$$$

  Mrv2115 07222212352D          

 27 30  0  0  0  0            999 V2000
   -4.2868   -4.1250    0.0000 C   0  0  0  0  0  0  0  0  0  0  0  0
   -3.5724   -3.7125    0.0000 C   0  0  0  0  0  0  0  0  0  0  0  0
   -3.5724   -2.8875    0.0000 C   0  0  0  0  0  0  0  0  0  0  0  0
   -2.8579   -2.4750    0.0000 C   0  0  0  0  0  0  0  0  0  0  0  0
   -2.1434   -2.8875    0.0000 C   0  0  0  0  0  0  0  0  0  0  0  0
   -1.4289   -2.4750    0.0000 C   0  0  0  0  0  0  0  0  0  0  0  0
   -1.4289   -1.6500    0.0000 C   0  0  0  0  0  0  0  0  0  0  0  0
   -0.7145   -1.2375    0.0000 C   0  0  0  0  0  0  0  0  0  0  0  0
    0.0000   -1.6500    0.0000 C   0  0  0  0  0  0  0  0  0  0  0  0
    0.7145   -1.2375    0.0000 C   0  0  0  0  0  0  0  0  0  0  0  0
    0.7145   -0.4125    0.0000 C   0  0  0  0  0  0  0  0  0  0  0  0
    1.4289    0.0000    0.0000 C   0  0  0  0  0  0  0  0  0  0  0  0
    1.4289    0.8250    0.0000 C   0  0  0  0  0  0  0  0  0  0  0  0
    2.1434    1.2375    0.0000 O   0  0  0  0  0  0  0  0  0  0  0  0
    0.7145    1.2375    0.0000 O   0  0  0  0  0  0  0  0  0  0  0  0
    2.1434   -0.4125    0.0000 C   0  0  0  0  0  0  0  0  0  0  0  0
    2.8579    0.0000    0.0000 C   0  0  0  0  0  0  0  0  0  0  0  0
    3.5724   -0.4125    0.0000 C   0  0  0  0  0  0  0  0  0  0  0  0
    3.5724   -1.2375    0.0000 C   0  0  0  0  0  0  0  0  0  0  0  0
    2.8579   -1.6500    0.0000 C   0  0  0  0  0  0  0  0  0  0  0  0
    2.1434   -1.2375    0.0000 C   0  0  0  0  0  0  0  0  0  0  0  0
    1.4289   -1.6500    0.0000 N   0  0  0  0  0  0  0  0  0  0  0  0
    0.0000   -2.4750    0.0000 C   0  0  0  0  0  0  0  0  0  0  0  0
   -0.7145   -2.8875    0.0000 C   0  0  0  0  0  0  0  0  0  0  0  0
   -2.1434   -3.7125    0.0000 C   0  0  0  0  0  0  0  0  0  0  0  0
   -1.4289   -4.1250    0.0000 Cl  0  0  0  0  0  0  0  0  0  0  0  0
   -2.8579   -4.1250    0.0000 N   0  0  0  0  0  0  0  0  0  0  0  0
  1  2  1  0  0  0  0
  2  3  4  0  0  0  0
  3  4  4  0  0  0  0
  4  5  4  0  0  0  0
  5  6  1  0  0  0  0
  6  7  4  0  0  0  0
  7  8  4  0  0  0  0
  8  9  4  0  0  0  0
  9 10  1  0  0  0  0
 10 11  4  0  0  0  0
 11 12  4  0  0  0  0
 12 13  1  0  0  0  0
 13 14  2  0  0  0  0
 13 15  1  0  0  0  0
 12 16  4  0  0  0  0
 16 17  4  0  0  0  0
 17 18  4  0  0  0  0
 18 19  4  0  0  0  0
 19 20  4  0  0  0  0
 20 21  4  0  0  0  0
 16 21  4  0  0  0  0
 21 22  4  0  0  0  0
 10 22  4  0  0  0  0
  9 23  4  0  0  0  0
 23 24  4  0  0  0  0
  6 24  4  0  0  0  0
  5 25  4  0  0  0  0
 25 26  1  0  0  0  0
 25 27  4  0  0  0  0
  2 27  4  0  0  0  0
M  END
> <IC50(uM)>
0.235

> <Outcome>
1.0

> <BindingDB ID>
51126187

> <BindingDB MonomerID>
50461874

> <BindingDB Ligand Name>
CHEMBL4225816

> <Curation/DataSource>
ChEMBL

> <Article DOI>
10.1021/acs.jmedchem.7b01862

> <PMID>
29727569

> <Patent Number>
?

> <Authors>
Madak, JT; Cuthbertson, CR; Miyata, Y; Tamura, S; Petrunak, EM; Stuckey, JA; Han, Y; He, M; Sun, D; Showalter, HD; Neamati, N

> <Link to Ligand in BindingDB>
http://www.bindingdb.org/bind/chemsearch/marvin/MolStructure.jsp?monomerid=50461874

> <Link to Ligand-Target Pair in BindingDB>
http://www.bindingdb.org/jsp/dbsearch/PrimarySearch_ki.jsp?energyterm=kJ/mole&tag=r21&monomerid=50461874&enzyme=Dihydroorotate+dehydrogenase&column=ki&startPg=0&Increment=50&submit=Search

> <PubChem CID>
145970351

> <PubChem SID>
433929139

$$$$

  Mrv2115 07222212352D          

 24 27  0  0  0  0            999 V2000
    3.9934    2.4750    0.0000 O   0  0  0  0  0  0  0  0  0  0  0  0
    3.2789    2.0625    0.0000 C   0  0  0  0  0  0  0  0  0  0  0  0
    2.5645    2.4750    0.0000 O   0  0  0  0  0  0  0  0  0  0  0  0
    3.2789    1.2375    0.0000 C   0  0  0  0  0  0  0  0  0  0  0  0
    3.9934    0.8250    0.0000 C   0  0  0  0  0  0  0  0  0  0  0  0
    3.9934    0.0000    0.0000 C   0  0  0  0  0  0  0  0  0  0  0  0
    3.2789   -0.4125    0.0000 C   0  0  0  0  0  0  0  0  0  0  0  0
    2.5645    0.0000    0.0000 N   0  0  0  0  0  0  0  0  0  0  0  0
    1.7798   -0.2549    0.0000 N   0  0  0  0  0  0  0  0  0  0  0  0
    1.2949    0.4125    0.0000 C   0  0  0  0  0  0  0  0  0  0  0  0
    0.4699    0.4125    0.0000 C   0  0  0  0  0  0  0  0  0  0  0  0
    0.0574   -0.3020    0.0000 C   0  0  0  0  0  0  0  0  0  0  0  0
   -0.7676   -0.3020    0.0000 C   0  0  0  0  0  0  0  0  0  0  0  0
   -1.1801    0.4125    0.0000 C   0  0  0  0  0  0  0  0  0  0  0  0
   -2.0051    0.4125    0.0000 C   0  0  0  0  0  0  0  0  0  0  0  0
   -2.4176   -0.3020    0.0000 C   0  0  0  0  0  0  0  0  0  0  0  0
   -3.2426   -0.3020    0.0000 C   0  0  0  0  0  0  0  0  0  0  0  0
   -3.6551    0.4125    0.0000 C   0  0  0  0  0  0  0  0  0  0  0  0
   -3.2426    1.1270    0.0000 C   0  0  0  0  0  0  0  0  0  0  0  0
   -2.4176    1.1270    0.0000 C   0  0  0  0  0  0  0  0  0  0  0  0
   -0.7676    1.1270    0.0000 C   0  0  0  0  0  0  0  0  0  0  0  0
    0.0574    1.1270    0.0000 C   0  0  0  0  0  0  0  0  0  0  0  0
    1.7798    1.0799    0.0000 N   0  0  0  0  0  0  0  0  0  0  0  0
    2.5645    0.8250    0.0000 C   0  0  0  0  0  0  0  0  0  0  0  0
  1  2  2  0  0  0  0
  2  3  1  0  0  0  0
  2  4  1  0  0  0  0
  4  5  4  0  0  0  0
  5  6  4  0  0  0  0
  6  7  4  0  0  0  0
  7  8  4  0  0  0  0
  8  9  4  0  0  0  0
  9 10  4  0  0  0  0
 10 11  1  0  0  0  0
 11 12  4  0  0  0  0
 12 13  4  0  0  0  0
 13 14  4  0  0  0  0
 14 15  1  0  0  0  0
 15 16  4  0  0  0  0
 16 17  4  0  0  0  0
 17 18  4  0  0  0  0
 18 19  4  0  0  0  0
 19 20  4  0  0  0  0
 15 20  4  0  0  0  0
 14 21  4  0  0  0  0
 21 22  4  0  0  0  0
 11 22  4  0  0  0  0
 10 23  4  0  0  0  0
 23 24  4  0  0  0  0
  4 24  4  0  0  0  0
  8 24  4  0  0  0  0
M  END
> <IC50(uM)>
1.2

> <Outcome>
0.0

> <BindingDB ID>
297824

> <BindingDB MonomerID>
155480

> <BindingDB Ligand Name>
US9006454, I122

> <Curation/DataSource>
US Patent

> <Article DOI>
?

> <PMID>
?

> <Patent Number>
US9006454

> <Authors>
Thunuguntla, SS; Subramanya, H; Kunnam, SR; Sanivaru Vijay, SR; Bingi, C; Kusanur, R; Schwarz, M; Arlt, M

> <Link to Ligand in BindingDB>
http://www.bindingdb.org/bind/chemsearch/marvin/MolStructure.jsp?monomerid=155480

> <Link to Ligand-Target Pair in BindingDB>
http://www.bindingdb.org/jsp/dbsearch/PrimarySearch_ki.jsp?energyterm=kJ/mole&tag=r21&monomerid=155480&enzyme=Dihydroorotate+dehydrogenase&column=ki&startPg=0&Increment=50&submit=Search

> <PubChem CID>
58073856

> <PubChem SID>
253658417

$$$$

  Mrv2115 07222212352D          

 31 35  0  0  0  0            999 V2000
    1.8414   -3.0618    0.0000 O   0  0  0  0  0  0  0  0  0  0  0  0
    2.5559   -2.6493    0.0000 C   0  0  0  0  0  0  0  0  0  0  0  0
    2.5559   -1.8243    0.0000 O   0  0  0  0  0  0  0  0  0  0  0  0
    3.2704   -3.0618    0.0000 C   0  0  0  0  0  0  0  0  0  0  0  0
    3.2704   -3.8868    0.0000 C   0  0  0  0  0  0  0  0  0  0  0  0
    3.9849   -4.2993    0.0000 C   0  0  0  0  0  0  0  0  0  0  0  0
    3.9849   -5.1243    0.0000 C   0  0  0  0  0  0  0  0  0  0  0  0
    4.3974   -5.8388    0.0000 C   0  0  0  0  0  0  0  0  0  0  0  0
    3.5724   -5.8388    0.0000 C   0  0  0  0  0  0  0  0  0  0  0  0
    4.6993   -3.8868    0.0000 C   0  0  0  0  0  0  0  0  0  0  0  0
    4.6993   -3.0618    0.0000 N   0  0  0  0  0  0  0  0  0  0  0  0
    3.9849   -2.6493    0.0000 C   0  0  0  0  0  0  0  0  0  0  0  0
    3.9849   -1.8243    0.0000 N   0  0  0  0  0  0  0  0  0  0  0  0
    4.6993   -1.4118    0.0000 C   0  0  0  0  0  0  0  0  0  0  0  0
    4.6993   -0.5868    0.0000 C   0  0  0  0  0  0  0  0  0  0  0  0
    3.9849   -0.1743    0.0000 F   0  0  0  0  0  0  0  0  0  0  0  0
    5.4138   -0.1743    0.0000 C   0  0  0  0  0  0  0  0  0  0  0  0
    6.1283   -0.5868    0.0000 C   0  0  0  0  0  0  0  0  0  0  0  0
    6.8427   -0.1743    0.0000 C   0  0  0  0  0  0  0  0  0  0  0  0
    6.8427    0.6507    0.0000 C   0  0  0  0  0  0  0  0  0  0  0  0
    7.5572    1.0632    0.0000 C   0  0  0  0  0  0  0  0  0  0  0  0
    8.2717    0.6507    0.0000 C   0  0  0  0  0  0  0  0  0  0  0  0
    8.2717   -0.1743    0.0000 C   0  0  0  0  0  0  0  0  0  0  0  0
    8.9862   -0.5868    0.0000 O   0  0  0  0  0  0  0  0  0  0  0  0
    8.9862   -1.4118    0.0000 C   0  0  0  0  0  0  0  0  0  0  0  0
    9.3987   -2.1263    0.0000 C   0  0  0  0  0  0  0  0  0  0  0  0
    8.5737   -2.1263    0.0000 C   0  0  0  0  0  0  0  0  0  0  0  0
    7.5572   -0.5868    0.0000 C   0  0  0  0  0  0  0  0  0  0  0  0
    6.1283   -1.4118    0.0000 C   0  0  0  0  0  0  0  0  0  0  0  0
    5.4138   -1.8243    0.0000 C   0  0  0  0  0  0  0  0  0  0  0  0
    5.4138   -2.6493    0.0000 F   0  0  0  0  0  0  0  0  0  0  0  0
  1  2  2  0  0  0  0
  2  3  1  0  0  0  0
  2  4  1  0  0  0  0
  4  5  4  0  0  0  0
  5  6  4  0  0  0  0
  6  7  1  0  0  0  0
  7  8  1  0  0  0  0
  8  9  1  0  0  0  0
  7  9  1  0  0  0  0
  6 10  4  0  0  0  0
 10 11  4  0  0  0  0
 11 12  4  0  0  0  0
  4 12  4  0  0  0  0
 12 13  1  0  0  0  0
 13 14  1  0  0  0  0
 14 15  4  0  0  0  0
 15 16  1  0  0  0  0
 15 17  4  0  0  0  0
 17 18  4  0  0  0  0
 18 19  1  0  0  0  0
 19 20  4  0  0  0  0
 20 21  4  0  0  0  0
 21 22  4  0  0  0  0
 22 23  4  0  0  0  0
 23 24  1  0  0  0  0
 24 25  1  0  0  0  0
 25 26  1  0  0  0  0
 26 27  1  0  0  0  0
 25 27  1  0  0  0  0
 23 28  4  0  0  0  0
 19 28  4  0  0  0  0
 18 29  4  0  0  0  0
 29 30  4  0  0  0  0
 14 30  4  0  0  0  0
 30 31  1  0  0  0  0
M  END
> <IC50(uM)>
0.006

> <Outcome>
1.0

> <BindingDB ID>
51186832; 246918

> <BindingDB MonomerID>
119825

> <BindingDB Ligand Name>
US8691852, 50

> <Curation/DataSource>
ChEMBL; US Patent

> <Article DOI>
10.1007/s00044-011-9837-4; ?

> <PMID>
?

> <Patent Number>
?; US8691852

> <Authors>
n/a; Castro Palomino Laria, JC; Erra Sola, M; Lozoya Toribio, ME; Navarro Romero, E

> <Link to Ligand in BindingDB>
http://www.bindingdb.org/bind/chemsearch/marvin/MolStructure.jsp?monomerid=119825

> <Link to Ligand-Target Pair in BindingDB>
http://www.bindingdb.org/jsp/dbsearch/PrimarySearch_ki.jsp?energyterm=kJ/mole&tag=r21&monomerid=119825&enzyme=Dihydroorotate+dehydrogenase&column=ki&startPg=0&Increment=50&submit=Search

> <PubChem CID>
24988292

> <PubChem SID>
220230619

$$$$

  Mrv2115 07222212352D          

 23 25  0  0  0  0            999 V2000
    4.2787   -3.0021    0.0000 C   0  0  0  0  0  0  0  0  0  0  0  0
    4.9932   -2.5896    0.0000 C   0  0  0  0  0  0  0  0  0  0  0  0
    5.7077   -3.0021    0.0000 C   0  0  0  0  0  0  0  0  0  0  0  0
    6.4221   -2.5896    0.0000 O   0  0  0  0  0  0  0  0  0  0  0  0
    7.1366   -3.0021    0.0000 C   0  0  0  0  0  0  0  0  0  0  0  0
    7.1366   -3.8271    0.0000 O   0  0  0  0  0  0  0  0  0  0  0  0
    7.8511   -2.5896    0.0000 C   0  0  0  0  0  0  0  0  0  0  0  0
    7.9373   -1.7691    0.0000 C   0  0  0  0  0  0  0  0  0  0  0  0
    7.3242   -1.2171    0.0000 O   0  0  0  0  0  0  0  0  0  0  0  0
    8.7443   -1.5976    0.0000 C   0  0  0  0  0  0  0  0  0  0  0  0
    9.1568   -2.3120    0.0000 S   0  0  0  0  0  0  0  0  0  0  0  0
    8.6047   -2.9251    0.0000 C   0  0  0  0  0  0  0  0  0  0  0  0
    8.7763   -3.7321    0.0000 N   0  0  0  0  0  0  0  0  0  0  0  0
    9.5609   -3.9870    0.0000 C   0  0  0  0  0  0  0  0  0  0  0  0
   10.1740   -3.4350    0.0000 C   0  0  0  0  0  0  0  0  0  0  0  0
   10.9586   -3.6900    0.0000 C   0  0  0  0  0  0  0  0  0  0  0  0
   11.1301   -4.4969    0.0000 C   0  0  0  0  0  0  0  0  0  0  0  0
   11.9148   -4.7519    0.0000 C   0  0  0  0  0  0  0  0  0  0  0  0
   12.0863   -5.5588    0.0000 C   0  0  0  0  0  0  0  0  0  0  0  0
   11.4732   -6.1109    0.0000 C   0  0  0  0  0  0  0  0  0  0  0  0
   10.6886   -5.8559    0.0000 C   0  0  0  0  0  0  0  0  0  0  0  0
   10.5170   -5.0490    0.0000 C   0  0  0  0  0  0  0  0  0  0  0  0
    9.7324   -4.7940    0.0000 C   0  0  0  0  0  0  0  0  0  0  0  0
  1  2  1  0  0  0  0
  2  3  1  0  0  0  0
  3  4  1  0  0  0  0
  4  5  1  0  0  0  0
  5  6  2  0  0  0  0
  5  7  1  0  0  0  0
  7  8  4  0  0  0  0
  8  9  1  0  0  0  0
  8 10  4  0  0  0  0
 10 11  4  0  0  0  0
 11 12  4  0  0  0  0
  7 12  4  0  0  0  0
 12 13  1  0  0  0  0
 13 14  1  0  0  0  0
 14 15  4  0  0  0  0
 15 16  4  0  0  0  0
 16 17  4  0  0  0  0
 17 18  4  0  0  0  0
 18 19  4  0  0  0  0
 19 20  4  0  0  0  0
 20 21  4  0  0  0  0
 21 22  4  0  0  0  0
 17 22  4  0  0  0  0
 22 23  4  0  0  0  0
 14 23  4  0  0  0  0
M  END
> <IC50(uM)>
50.0

> <Outcome>
0.0

> <BindingDB ID>
51079152

> <BindingDB MonomerID>
50441260

> <BindingDB Ligand Name>
CHEMBL2431489

> <Curation/DataSource>
ChEMBL

> <Article DOI>
10.1021/jm400938g

> <PMID>
24073986

> <Patent Number>
?

> <Authors>
Xu, M; Zhu, J; Diao, Y; Zhou, H; Ren, X; Sun, D; Huang, J; Han, D; Zhao, Z; Zhu, L; Xu, Y; Li, H

> <Link to Ligand in BindingDB>
http://www.bindingdb.org/bind/chemsearch/marvin/MolStructure.jsp?monomerid=50441260

> <Link to Ligand-Target Pair in BindingDB>
http://www.bindingdb.org/jsp/dbsearch/PrimarySearch_ki.jsp?energyterm=kJ/mole&tag=r21&monomerid=50441260&enzyme=Dihydroorotate+dehydrogenase&column=ki&startPg=0&Increment=50&submit=Search

> <PubChem CID>
91898821

> <PubChem SID>
175453577

$$$$

  Mrv2115 07222212352D          

 24 25  0  0  0  0            999 V2000
   -0.1067   -0.0616    0.0000 C   0  0  0  0  0  0  0  0  0  0  0  0
    0.6078   -0.4741    0.0000 C   0  0  0  0  0  0  0  0  0  0  0  0
    1.3222   -0.0616    0.0000 O   0  0  0  0  0  0  0  0  0  0  0  0
    2.0367   -0.4741    0.0000 C   0  0  0  0  0  0  0  0  0  0  0  0
    2.7512   -0.0616    0.0000 O   0  0  0  0  0  0  0  0  0  0  0  0
    2.0367   -1.2991    0.0000 C   0  0  0  0  0  0  0  0  0  0  0  0
    1.3693   -1.7840    0.0000 C   0  0  0  0  0  0  0  0  0  0  0  0
    0.5846   -1.5291    0.0000 O   0  0  0  0  0  0  0  0  0  0  0  0
    1.6242   -2.5687    0.0000 C   0  0  0  0  0  0  0  0  0  0  0  0
    2.4492   -2.5687    0.0000 O   0  0  0  0  0  0  0  0  0  0  0  0
    2.7041   -1.7840    0.0000 C   0  0  0  0  0  0  0  0  0  0  0  0
    3.4888   -1.5291    0.0000 N   0  0  0  0  0  0  0  0  0  0  0  0
    4.1019   -2.0811    0.0000 C   0  0  0  0  0  0  0  0  0  0  0  0
    4.8865   -1.8262    0.0000 C   0  0  0  0  0  0  0  0  0  0  0  0
    5.4996   -2.3782    0.0000 C   0  0  0  0  0  0  0  0  0  0  0  0
    5.3281   -3.1852    0.0000 C   0  0  0  0  0  0  0  0  0  0  0  0
    5.9411   -3.7372    0.0000 S   0  0  0  0  0  0  0  0  0  0  0  0
    6.5542   -4.2893    0.0000 F   0  0  0  0  0  0  0  0  0  0  0  0
    6.7258   -3.4823    0.0000 F   0  0  0  0  0  0  0  0  0  0  0  0
    6.1127   -2.9302    0.0000 F   0  0  0  0  0  0  0  0  0  0  0  0
    5.1565   -3.9922    0.0000 F   0  0  0  0  0  0  0  0  0  0  0  0
    5.7696   -4.5442    0.0000 F   0  0  0  0  0  0  0  0  0  0  0  0
    4.5434   -3.4401    0.0000 C   0  0  0  0  0  0  0  0  0  0  0  0
    3.9303   -2.8881    0.0000 C   0  0  0  0  0  0  0  0  0  0  0  0
  1  2  1  0  0  0  0
  2  3  1  0  0  0  0
  3  4  1  0  0  0  0
  4  5  2  0  0  0  0
  4  6  1  0  0  0  0
  6  7  4  0  0  0  0
  7  8  1  0  0  0  0
  7  9  4  0  0  0  0
  9 10  4  0  0  0  0
 10 11  4  0  0  0  0
  6 11  4  0  0  0  0
 11 12  1  0  0  0  0
 12 13  1  0  0  0  0
 13 14  4  0  0  0  0
 14 15  4  0  0  0  0
 15 16  4  0  0  0  0
 16 17  1  0  0  0  0
 17 18  1  0  0  0  0
 17 19  1  0  0  0  0
 17 20  1  0  0  0  0
 17 21  1  0  0  0  0
 17 22  1  0  0  0  0
 16 23  4  0  0  0  0
 23 24  4  0  0  0  0
 13 24  4  0  0  0  0
M  END
> <IC50(uM)>
50.0

> <Outcome>
0.0

> <BindingDB ID>
51079140

> <BindingDB MonomerID>
50441248

> <BindingDB Ligand Name>
CHEMBL2431501

> <Curation/DataSource>
ChEMBL

> <Article DOI>
10.1021/jm400938g

> <PMID>
24073986

> <Patent Number>
?

> <Authors>
Xu, M; Zhu, J; Diao, Y; Zhou, H; Ren, X; Sun, D; Huang, J; Han, D; Zhao, Z; Zhu, L; Xu, Y; Li, H

> <Link to Ligand in BindingDB>
http://www.bindingdb.org/bind/chemsearch/marvin/MolStructure.jsp?monomerid=50441248

> <Link to Ligand-Target Pair in BindingDB>
http://www.bindingdb.org/jsp/dbsearch/PrimarySearch_ki.jsp?energyterm=kJ/mole&tag=r21&monomerid=50441248&enzyme=Dihydroorotate+dehydrogenase&column=ki&startPg=0&Increment=50&submit=Search

> <PubChem CID>
91898809

> <PubChem SID>
175453565

$$$$

  Mrv2115 07222212352D          

 27 29  0  0  0  0            999 V2000
   -0.7145   -3.7125    0.0000 C   0  0  0  0  0  0  0  0  0  0  0  0
   -0.7145   -2.8875    0.0000 O   0  0  0  0  0  0  0  0  0  0  0  0
    0.0000   -2.4750    0.0000 C   0  0  0  0  0  0  0  0  0  0  0  0
    0.0000   -1.6500    0.0000 O   0  0  0  0  0  0  0  0  0  0  0  0
    0.7145   -1.2375    0.0000 C   0  0  0  0  0  0  0  0  0  0  0  0
    0.7145   -0.4125    0.0000 C   0  0  0  0  0  0  0  0  0  0  0  0
    1.4289    0.0000    0.0000 C   0  0  0  0  0  0  0  0  0  0  0  0
    2.1434   -0.4125    0.0000 C   0  0  0  0  0  0  0  0  0  0  0  0
    2.8579    0.0000    0.0000 C   0  0  0  0  0  0  0  0  0  0  0  0
    3.5724   -0.4125    0.0000 C   0  0  0  0  0  0  0  0  0  0  0  0
    4.2868   -0.0000    0.0000 C   0  0  0  0  0  0  0  0  0  0  0  0
    4.2868    0.8250    0.0000 C   0  0  0  0  0  0  0  0  0  0  0  0
    5.0013    1.2375    0.0000 C   0  0  0  0  0  0  0  0  0  0  0  0
    5.0013    2.0625    0.0000 C   0  0  0  0  0  0  0  0  0  0  0  0
    4.2868    2.4750    0.0000 C   0  0  0  0  0  0  0  0  0  0  0  0
    4.2868    3.3000    0.0000 O   0  0  0  0  0  0  0  0  0  0  0  0
    3.5724    2.0625    0.0000 O   0  0  0  0  0  0  0  0  0  0  0  0
    5.7158    2.4750    0.0000 N   0  0  0  0  0  0  0  0  0  0  0  0
    6.4302    2.0625    0.0000 C   0  0  0  0  0  0  0  0  0  0  0  0
    7.1447    2.4750    0.0000 O   0  0  0  0  0  0  0  0  0  0  0  0
    6.4302    1.2375    0.0000 N   0  0  0  0  0  0  0  0  0  0  0  0
    5.7158    0.8250    0.0000 C   0  0  0  0  0  0  0  0  0  0  0  0
    5.7158   -0.0000    0.0000 O   0  0  0  0  0  0  0  0  0  0  0  0
    3.5724   -1.2375    0.0000 C   0  0  0  0  0  0  0  0  0  0  0  0
    2.8579   -1.6500    0.0000 C   0  0  0  0  0  0  0  0  0  0  0  0
    2.1434   -1.2375    0.0000 C   0  0  0  0  0  0  0  0  0  0  0  0
    1.4289   -1.6500    0.0000 C   0  0  0  0  0  0  0  0  0  0  0  0
  1  2  1  0  0  0  0
  2  3  1  0  0  0  0
  3  4  1  0  0  0  0
  4  5  1  0  0  0  0
  5  6  4  0  0  0  0
  6  7  4  0  0  0  0
  7  8  4  0  0  0  0
  8  9  4  0  0  0  0
  9 10  4  0  0  0  0
 10 11  1  0  0  0  0
 11 12  1  0  0  0  0
 12 13  1  0  0  0  0
 13 14  4  0  0  0  0
 14 15  1  0  0  0  0
 15 16  2  0  0  0  0
 15 17  1  0  0  0  0
 14 18  4  0  0  0  0
 18 19  4  0  0  0  0
 19 20  2  0  0  0  0
 19 21  4  0  0  0  0
 21 22  4  0  0  0  0
 13 22  4  0  0  0  0
 22 23  2  0  0  0  0
 10 24  4  0  0  0  0
 24 25  4  0  0  0  0
 25 26  4  0  0  0  0
  8 26  4  0  0  0  0
 26 27  4  0  0  0  0
  5 27  4  0  0  0  0
M  STY  2   1 DAT   2 DAT
M  SAL   1  1  18
M  SDT   1 MRV_IMPLICIT_H                                        
M  SDD   1     0.6482   -0.4125    DR    ALL  0       0  
M  SED   1 IMPL_H1
M  SAL   2  1  21
M  SDT   2 MRV_IMPLICIT_H                                        
M  SDD   2     0.5304   -0.4125    DR    ALL  0       0  
M  SED   2 IMPL_H1
M  END
> <IC50(uM)>
0.277

> <Outcome>
1.0

> <BindingDB ID>
50555218

> <BindingDB MonomerID>
50211694

> <BindingDB Ligand Name>
CHEMBL3917382

> <Curation/DataSource>
ChEMBL

> <Article DOI>
10.1016/j.bmc.2017.01.009

> <PMID>
28118956

> <Patent Number>
?

> <Authors>
Inaoka, DK; Iida, M; Hashimoto, S; Tabuchi, T; Kuranaga, T; Balogun, EO; Honma, T; Tanaka, A; Harada, S; Nara, T; Kita, K; Inoue, M

> <Link to Ligand in BindingDB>
http://www.bindingdb.org/bind/chemsearch/marvin/MolStructure.jsp?monomerid=50211694

> <Link to Ligand-Target Pair in BindingDB>
http://www.bindingdb.org/jsp/dbsearch/PrimarySearch_ki.jsp?energyterm=kJ/mole&tag=r21&monomerid=50211694&enzyme=Dihydroorotate+dehydrogenase&column=ki&startPg=0&Increment=50&submit=Search

> <PubChem CID>
134142713

> <PubChem SID>
375983037

$$$$

  Mrv2115 07222212352D          

 28 31  0  0  0  0            999 V2000
   -6.3587   -1.4124    0.0000 C   0  0  0  0  0  0  0  0  0  0  0  0
   -5.5337   -1.4124    0.0000 C   0  0  0  0  0  0  0  0  0  0  0  0
   -5.1212   -2.1269    0.0000 O   0  0  0  0  0  0  0  0  0  0  0  0
   -5.1212   -0.6979    0.0000 N   0  0  0  0  0  0  0  0  0  0  0  0
   -4.2962   -0.6979    0.0000 C   0  0  0  0  0  0  0  0  0  0  0  0
   -3.8837    0.0165    0.0000 C   0  0  0  0  0  0  0  0  0  0  0  0
   -3.0587    0.0165    0.0000 C   0  0  0  0  0  0  0  0  0  0  0  0
   -2.6462   -0.6979    0.0000 C   0  0  0  0  0  0  0  0  0  0  0  0
   -1.8212   -0.6979    0.0000 C   0  0  0  0  0  0  0  0  0  0  0  0
   -1.4087    0.0165    0.0000 C   0  0  0  0  0  0  0  0  0  0  0  0
   -0.5837    0.0165    0.0000 C   0  0  0  0  0  0  0  0  0  0  0  0
   -0.1712   -0.6979    0.0000 C   0  0  0  0  0  0  0  0  0  0  0  0
    0.6538   -0.6979    0.0000 C   0  0  0  0  0  0  0  0  0  0  0  0
    1.1387   -0.0305    0.0000 N   0  0  0  0  0  0  0  0  0  0  0  0
    1.9233   -0.2854    0.0000 C   0  0  0  0  0  0  0  0  0  0  0  0
    2.6378    0.1271    0.0000 C   0  0  0  0  0  0  0  0  0  0  0  0
    2.6378    0.9521    0.0000 C   0  0  0  0  0  0  0  0  0  0  0  0
    1.9233    1.3646    0.0000 N   0  0  0  0  0  0  0  0  0  0  0  0
    3.3523    1.3646    0.0000 O   0  0  0  0  0  0  0  0  0  0  0  0
    3.3523   -0.2854    0.0000 C   0  0  0  0  0  0  0  0  0  0  0  0
    3.3523   -1.1104    0.0000 C   0  0  0  0  0  0  0  0  0  0  0  0
    2.6378   -1.5229    0.0000 C   0  0  0  0  0  0  0  0  0  0  0  0
    1.9233   -1.1104    0.0000 C   0  0  0  0  0  0  0  0  0  0  0  0
    1.1387   -1.3654    0.0000 N   0  0  0  0  0  0  0  0  0  0  0  0
   -0.5837   -1.4124    0.0000 C   0  0  0  0  0  0  0  0  0  0  0  0
   -1.4087   -1.4124    0.0000 C   0  0  0  0  0  0  0  0  0  0  0  0
   -3.0587   -1.4124    0.0000 C   0  0  0  0  0  0  0  0  0  0  0  0
   -3.8837   -1.4124    0.0000 N   0  0  0  0  0  0  0  0  0  0  0  0
  1  2  1  0  0  0  0
  2  3  2  0  0  0  0
  2  4  1  0  0  0  0
  4  5  1  0  0  0  0
  5  6  4  0  0  0  0
  6  7  4  0  0  0  0
  7  8  4  0  0  0  0
  8  9  1  0  0  0  0
  9 10  4  0  0  0  0
 10 11  4  0  0  0  0
 11 12  4  0  0  0  0
 12 13  1  0  0  0  0
 13 14  4  0  0  0  0
 14 15  4  0  0  0  0
 15 16  4  0  0  0  0
 16 17  1  0  0  0  0
 17 18  1  0  0  0  0
 17 19  2  0  0  0  0
 16 20  4  0  0  0  0
 20 21  4  0  0  0  0
 21 22  4  0  0  0  0
 22 23  4  0  0  0  0
 15 23  4  0  0  0  0
 23 24  4  0  0  0  0
 13 24  4  0  0  0  0
 12 25  4  0  0  0  0
 25 26  4  0  0  0  0
  9 26  4  0  0  0  0
  8 27  4  0  0  0  0
 27 28  4  0  0  0  0
  5 28  4  0  0  0  0
M  STY  1   1 DAT
M  SAL   1  1  24
M  SDT   1 MRV_IMPLICIT_H                                        
M  SDD   1     0.5304   -0.4125    DR    ALL  0       0  
M  SED   1 IMPL_H1
M  END
> <IC50(uM)>
40.0

> <Outcome>
0.0

> <BindingDB ID>
50358222

> <BindingDB MonomerID>
50096145

> <BindingDB Ligand Name>
CHEMBL3593989

> <Curation/DataSource>
ChEMBL

> <Article DOI>
10.1016/j.bmc.2015.05.051

> <PMID>
26088338

> <Patent Number>
?

> <Authors>
Abdullah, I; Chee, CF; Lee, YK; Thunuguntla, SS; Satish Reddy, K; Nellore, K; Antony, T; Verma, J; Mun, KW; Othman, S; Subramanya, H; Rahman, NA

> <Link to Ligand in BindingDB>
http://www.bindingdb.org/bind/chemsearch/marvin/MolStructure.jsp?monomerid=50096145

> <Link to Ligand-Target Pair in BindingDB>
http://www.bindingdb.org/jsp/dbsearch/PrimarySearch_ki.jsp?energyterm=kJ/mole&tag=r21&monomerid=50096145&enzyme=Dihydroorotate+dehydrogenase&column=ki&startPg=0&Increment=50&submit=Search

> <PubChem CID>
122182317

> <PubChem SID>
318473798

$$$$

  Mrv2115 07222212352D          

 38 41  0  0  0  0            999 V2000
   -5.1659   -1.4124    0.0000 C   0  0  0  0  0  0  0  0  0  0  0  0
   -5.5784   -0.6979    0.0000 C   0  0  0  0  0  0  0  0  0  0  0  0
   -6.4034   -0.6979    0.0000 C   0  0  0  0  0  0  0  0  0  0  0  0
   -6.8159    0.0165    0.0000 C   0  0  0  0  0  0  0  0  0  0  0  0
   -6.4034    0.7310    0.0000 C   0  0  0  0  0  0  0  0  0  0  0  0
   -5.5784    0.7310    0.0000 C   0  0  0  0  0  0  0  0  0  0  0  0
   -5.1659    1.4455    0.0000 C   0  0  0  0  0  0  0  0  0  0  0  0
   -4.7534    2.1599    0.0000 F   0  0  0  0  0  0  0  0  0  0  0  0
   -4.4515    1.0330    0.0000 F   0  0  0  0  0  0  0  0  0  0  0  0
   -5.8804    1.8580    0.0000 F   0  0  0  0  0  0  0  0  0  0  0  0
   -5.1659    0.0165    0.0000 C   0  0  0  0  0  0  0  0  0  0  0  0
   -4.3409    0.0165    0.0000 N   0  0  0  0  0  0  0  0  0  0  0  0
   -3.9284   -0.6979    0.0000 C   0  0  0  0  0  0  0  0  0  0  0  0
   -4.3409   -1.4124    0.0000 O   0  0  0  0  0  0  0  0  0  0  0  0
   -3.1034   -0.6979    0.0000 C   0  0  0  0  0  0  0  0  0  0  0  0
   -2.6909    0.0165    0.0000 C   0  0  0  0  0  0  0  0  0  0  0  0
   -1.8659    0.0165    0.0000 C   0  0  0  0  0  0  0  0  0  0  0  0
   -1.4534    0.7310    0.0000 F   0  0  0  0  0  0  0  0  0  0  0  0
   -1.4534   -0.6979    0.0000 C   0  0  0  0  0  0  0  0  0  0  0  0
   -0.6284   -0.6979    0.0000 N   0  0  0  0  0  0  0  0  0  0  0  0
   -0.1435   -1.3654    0.0000 N   0  0  0  0  0  0  0  0  0  0  0  0
    0.6411   -1.1104    0.0000 C   0  0  0  0  0  0  0  0  0  0  0  0
    0.6411   -0.2854    0.0000 N   0  0  0  0  0  0  0  0  0  0  0  0
   -0.1435   -0.0305    0.0000 C   0  0  0  0  0  0  0  0  0  0  0  0
   -0.3984    0.7541    0.0000 O   0  0  0  0  0  0  0  0  0  0  0  0
    1.3556    0.1271    0.0000 C   0  0  0  0  0  0  0  0  0  0  0  0
    2.0701   -0.2854    0.0000 C   0  0  0  0  0  0  0  0  0  0  0  0
    2.0701   -1.1104    0.0000 O   0  0  0  0  0  0  0  0  0  0  0  0
    1.3556   -1.5229    0.0000 C   0  0  0  0  0  0  0  0  0  0  0  0
   -1.8659   -1.4124    0.0000 C   0  0  0  0  0  0  0  0  0  0  0  0
   -2.6909   -1.4124    0.0000 C   0  0  0  0  0  0  0  0  0  0  0  0
   -3.1034   -2.1269    0.0000 O   0  0  0  0  0  0  0  0  0  0  0  0
   -2.6909   -2.8414    0.0000 C   0  0  0  0  0  0  0  0  0  0  0  0
   -1.8659   -2.8414    0.0000 C   0  0  0  0  0  0  0  0  0  0  0  0
   -3.1034   -3.5558    0.0000 C   0  0  0  0  0  0  0  0  0  0  0  0
   -3.8179   -3.1433    0.0000 F   0  0  0  0  0  0  0  0  0  0  0  0
   -2.3890   -3.9683    0.0000 F   0  0  0  0  0  0  0  0  0  0  0  0
   -3.5159   -4.2703    0.0000 F   0  0  0  0  0  0  0  0  0  0  0  0
  1  2  1  0  0  0  0
  2  3  4  0  0  0  0
  3  4  4  0  0  0  0
  4  5  4  0  0  0  0
  5  6  4  0  0  0  0
  6  7  1  0  0  0  0
  7  8  1  0  0  0  0
  7  9  1  0  0  0  0
  7 10  1  0  0  0  0
  6 11  4  0  0  0  0
  2 11  4  0  0  0  0
 11 12  1  0  0  0  0
 12 13  1  0  0  0  0
 13 14  2  0  0  0  0
 13 15  1  0  0  0  0
 15 16  4  0  0  0  0
 16 17  4  0  0  0  0
 17 18  1  0  0  0  0
 17 19  4  0  0  0  0
 19 20  1  0  0  0  0
 20 21  4  0  0  0  0
 21 22  4  0  0  0  0
 22 23  4  0  0  0  0
 23 24  4  0  0  0  0
 20 24  4  0  0  0  0
 24 25  2  0  0  0  0
 23 26  1  0  0  0  0
 26 27  1  0  0  0  0
 27 28  1  0  0  0  0
 28 29  1  0  0  0  0
 22 29  1  0  0  0  0
 19 30  4  0  0  0  0
 30 31  4  0  0  0  0
 15 31  4  0  0  0  0
 31 32  1  0  0  0  0
 32 33  1  0  0  0  0
 33 34  1  0  0  0  0
 33 35  1  0  0  0  0
 35 36  1  0  0  0  0
 35 37  1  0  0  0  0
 35 38  1  0  0  0  0
M  END
> <IC50(uM)>
0.016

> <Outcome>
1.0

> <BindingDB ID>
1020585

> <BindingDB MonomerID>
490524

> <BindingDB Ligand Name>
5-fluoro-N-[2-methyl-6-(trifluoromethyl)phenyl]-4-(3-oxo-5,6-dihydro-3H-[1,2,4]triazolo[3,4-c]-[1,4]oxazin-2(8H)-yl)-2-{[(2S)-1,1,1-trifluoropropan-2-yl]oxy}benzamide::US10968216, Example 192

> <Curation/DataSource>
US Patent

> <Article DOI>
?

> <PMID>
?

> <Patent Number>
US10968216

> <Authors>
Gradl, SN; Nguyen, D; Eis, K; Gunther, J; Stellfeld, T; Janzer, A; Christian, S; Mueller, T; Sheikh, SE; Zhou, HJ; Zhao, C; Sykes, DB; Ferrara, SJ; Liu, K; Herbert, SA; Merz, C; Niehues, M; Nising, CF; Schafer, M; Zimmermann, K; Knablein, J; Thede, K; Faupel, T

> <Link to Ligand in BindingDB>
http://www.bindingdb.org/bind/chemsearch/marvin/MolStructure.jsp?monomerid=490524

> <Link to Ligand-Target Pair in BindingDB>
http://www.bindingdb.org/jsp/dbsearch/PrimarySearch_ki.jsp?energyterm=kJ/mole&tag=r21&monomerid=490524&enzyme=Dihydroorotate+dehydrogenase&column=ki&startPg=0&Increment=50&submit=Search

> <PubChem CID>
134474003

> <PubChem SID>
447117250

$$$$

  Mrv2115 07222212352D          

 25 27  0  0  0  0            999 V2000
    2.1434   -2.8875    0.0000 O   0  0  0  0  0  0  0  0  0  0  0  0
    1.4289   -2.4750    0.0000 C   0  0  0  0  0  0  0  0  0  0  0  0
    0.7145   -2.8875    0.0000 O   0  0  0  0  0  0  0  0  0  0  0  0
    1.4289   -1.6500    0.0000 C   0  0  0  0  0  0  0  0  0  0  0  0
    0.7145   -1.2375    0.0000 C   0  0  0  0  0  0  0  0  0  0  0  0
    0.0000   -1.6500    0.0000 O   0  0  0  0  0  0  0  0  0  0  0  0
    0.7145   -0.4125    0.0000 C   0  0  0  0  0  0  0  0  0  0  0  0
    0.0000    0.0000    0.0000 C   0  0  0  0  0  0  0  0  0  0  0  0
   -0.7145   -0.4125    0.0000 C   0  0  0  0  0  0  0  0  0  0  0  0
   -1.4289    0.0000    0.0000 C   0  0  0  0  0  0  0  0  0  0  0  0
   -1.4289    0.8250    0.0000 C   0  0  0  0  0  0  0  0  0  0  0  0
   -2.1434    1.2375    0.0000 Cl  0  0  0  0  0  0  0  0  0  0  0  0
   -0.7145    1.2375    0.0000 C   0  0  0  0  0  0  0  0  0  0  0  0
    0.0000    0.8250    0.0000 C   0  0  0  0  0  0  0  0  0  0  0  0
    1.4289    0.0000    0.0000 N   0  0  0  0  0  0  0  0  0  0  0  0
    2.1434   -0.4125    0.0000 C   0  0  0  0  0  0  0  0  0  0  0  0
    2.8579    0.0000    0.0000 C   0  0  0  0  0  0  0  0  0  0  0  0
    2.8579    0.8250    0.0000 C   0  0  0  0  0  0  0  0  0  0  0  0
    2.8579    1.6500    0.0000 F   0  0  0  0  0  0  0  0  0  0  0  0
    3.6829    0.8250    0.0000 F   0  0  0  0  0  0  0  0  0  0  0  0
    2.0329    0.8250    0.0000 F   0  0  0  0  0  0  0  0  0  0  0  0
    3.5724   -0.4125    0.0000 C   0  0  0  0  0  0  0  0  0  0  0  0
    3.5724   -1.2375    0.0000 C   0  0  0  0  0  0  0  0  0  0  0  0
    2.8579   -1.6500    0.0000 C   0  0  0  0  0  0  0  0  0  0  0  0
    2.1434   -1.2375    0.0000 C   0  0  0  0  0  0  0  0  0  0  0  0
  1  2  2  0  0  0  0
  2  3  1  0  0  0  0
  2  4  1  0  0  0  0
  4  5  4  0  0  0  0
  5  6  1  0  0  0  0
  5  7  4  0  0  0  0
  7  8  1  0  0  0  0
  8  9  4  0  0  0  0
  9 10  4  0  0  0  0
 10 11  4  0  0  0  0
 11 12  1  0  0  0  0
 11 13  4  0  0  0  0
 13 14  4  0  0  0  0
  8 14  4  0  0  0  0
  7 15  4  0  0  0  0
 15 16  4  0  0  0  0
 16 17  4  0  0  0  0
 17 18  1  0  0  0  0
 18 19  1  0  0  0  0
 18 20  1  0  0  0  0
 18 21  1  0  0  0  0
 17 22  4  0  0  0  0
 22 23  4  0  0  0  0
 23 24  4  0  0  0  0
 24 25  4  0  0  0  0
  4 25  4  0  0  0  0
 16 25  4  0  0  0  0
M  END
> <IC50(uM)>
136.0

> <Outcome>
0.0

> <BindingDB ID>
50841918

> <BindingDB MonomerID>
50201938

> <BindingDB Ligand Name>
2-(4-chlorophenyl)-3-hydroxy-8-trifluoromethylquinoline-4-carboxylic acid::CHEMBL219364

> <Curation/DataSource>
ChEMBL

> <Article DOI>
10.1021/jm0602256

> <PMID>
17201408

> <Patent Number>
?

> <Authors>
Kaila, N; Janz, K; DeBernardo, S; Bedard, PW; Camphausen, RT; Tam, S; Tsao, DH; Keith, JC; Nickerson-Nutter, C; Shilling, A; Young-Sciame, R; Wang, Q

> <Link to Ligand in BindingDB>
http://www.bindingdb.org/bind/chemsearch/marvin/MolStructure.jsp?monomerid=50201938

> <Link to Ligand-Target Pair in BindingDB>
http://www.bindingdb.org/jsp/dbsearch/PrimarySearch_ki.jsp?energyterm=kJ/mole&tag=r21&monomerid=50201938&enzyme=Dihydroorotate+dehydrogenase&column=ki&startPg=0&Increment=50&submit=Search

> <PubChem CID>
16099914

> <PubChem SID>
104081589

$$$$

  Mrv2115 07222212352D          

 33 36  0  0  0  0            999 V2000
   -3.3451    3.1704    0.0000 C   0  0  0  0  0  0  0  0  0  0  0  0
   -2.9326    2.4559    0.0000 C   0  0  0  0  0  0  0  0  0  0  0  0
   -3.3451    1.7414    0.0000 N   0  0  0  0  0  0  0  0  0  0  0  0
   -3.1315    0.9445    0.0000 C   0  0  0  0  0  0  0  0  0  0  0  0
   -3.9284    0.7310    0.0000 C   0  0  0  0  0  0  0  0  0  0  0  0
   -4.3409    0.0165    0.0000 N   0  0  0  0  0  0  0  0  0  0  0  0
   -3.9284   -0.6979    0.0000 C   0  0  0  0  0  0  0  0  0  0  0  0
   -4.3409   -1.4124    0.0000 O   0  0  0  0  0  0  0  0  0  0  0  0
   -3.1034   -0.6979    0.0000 C   0  0  0  0  0  0  0  0  0  0  0  0
   -2.6909    0.0165    0.0000 C   0  0  0  0  0  0  0  0  0  0  0  0
   -1.8659    0.0165    0.0000 C   0  0  0  0  0  0  0  0  0  0  0  0
   -1.4534    0.7310    0.0000 F   0  0  0  0  0  0  0  0  0  0  0  0
   -1.4534   -0.6979    0.0000 C   0  0  0  0  0  0  0  0  0  0  0  0
   -0.6284   -0.6979    0.0000 N   0  0  0  0  0  0  0  0  0  0  0  0
   -0.1435   -1.3654    0.0000 N   0  0  0  0  0  0  0  0  0  0  0  0
    0.6411   -1.1104    0.0000 C   0  0  0  0  0  0  0  0  0  0  0  0
    0.6411   -0.2854    0.0000 N   0  0  0  0  0  0  0  0  0  0  0  0
   -0.1435   -0.0305    0.0000 C   0  0  0  0  0  0  0  0  0  0  0  0
   -0.3984    0.7541    0.0000 O   0  0  0  0  0  0  0  0  0  0  0  0
    1.3556    0.1271    0.0000 C   0  0  0  0  0  0  0  0  0  0  0  0
    2.0701   -0.2854    0.0000 C   0  0  0  0  0  0  0  0  0  0  0  0
    2.0701   -1.1104    0.0000 C   0  0  0  0  0  0  0  0  0  0  0  0
    1.3556   -1.5229    0.0000 C   0  0  0  0  0  0  0  0  0  0  0  0
   -1.8659   -1.4124    0.0000 C   0  0  0  0  0  0  0  0  0  0  0  0
   -2.6909   -1.4124    0.0000 C   0  0  0  0  0  0  0  0  0  0  0  0
   -3.1034   -2.1269    0.0000 O   0  0  0  0  0  0  0  0  0  0  0  0
   -2.6909   -2.8414    0.0000 C   0  0  0  0  0  0  0  0  0  0  0  0
   -1.8659   -2.8414    0.0000 C   0  0  0  0  0  0  0  0  0  0  0  0
   -3.1034   -3.5558    0.0000 C   0  0  0  0  0  0  0  0  0  0  0  0
   -3.8179   -3.1433    0.0000 F   0  0  0  0  0  0  0  0  0  0  0  0
   -2.3890   -3.9683    0.0000 F   0  0  0  0  0  0  0  0  0  0  0  0
   -3.5159   -4.2703    0.0000 F   0  0  0  0  0  0  0  0  0  0  0  0
   -4.1420    1.5279    0.0000 C   0  0  0  0  0  0  0  0  0  0  0  0
  1  2  1  0  0  0  0
  2  3  1  0  0  0  0
  3  4  1  0  0  0  0
  4  5  1  0  0  0  0
  5  6  1  0  0  0  0
  6  7  1  0  0  0  0
  7  8  2  0  0  0  0
  7  9  1  0  0  0  0
  9 10  4  0  0  0  0
 10 11  4  0  0  0  0
 11 12  1  0  0  0  0
 11 13  4  0  0  0  0
 13 14  1  0  0  0  0
 14 15  4  0  0  0  0
 15 16  4  0  0  0  0
 16 17  4  0  0  0  0
 17 18  4  0  0  0  0
 14 18  4  0  0  0  0
 18 19  2  0  0  0  0
 17 20  1  0  0  0  0
 20 21  1  0  0  0  0
 21 22  1  0  0  0  0
 22 23  1  0  0  0  0
 16 23  1  0  0  0  0
 13 24  4  0  0  0  0
 24 25  4  0  0  0  0
  9 25  4  0  0  0  0
 25 26  1  0  0  0  0
 26 27  1  0  0  0  0
 27 28  1  0  0  0  0
 27 29  1  0  0  0  0
 29 30  1  0  0  0  0
 29 31  1  0  0  0  0
 29 32  1  0  0  0  0
  5 33  1  0  0  0  0
  3 33  1  0  0  0  0
M  END
> <IC50(uM)>
2.8

> <Outcome>
0.0

> <BindingDB ID>
1020439

> <BindingDB MonomerID>
490390

> <BindingDB Ligand Name>
N-(1-ethylazetidin-3-yl)-5-fluoro-4-(3-oxo-5,6,7,8-tetrahydro[1,2,4]triazolo[4,3-a]pyridin-2(3H)-yl)-2-{[(2S)-1,1,1-trifluoropropan-2-yl]oxy}benzamide::US10968216, Example 58

> <Curation/DataSource>
US Patent

> <Article DOI>
?

> <PMID>
?

> <Patent Number>
US10968216

> <Authors>
Gradl, SN; Nguyen, D; Eis, K; Gunther, J; Stellfeld, T; Janzer, A; Christian, S; Mueller, T; Sheikh, SE; Zhou, HJ; Zhao, C; Sykes, DB; Ferrara, SJ; Liu, K; Herbert, SA; Merz, C; Niehues, M; Nising, CF; Schafer, M; Zimmermann, K; Knablein, J; Thede, K; Faupel, T

> <Link to Ligand in BindingDB>
http://www.bindingdb.org/bind/chemsearch/marvin/MolStructure.jsp?monomerid=490390

> <Link to Ligand-Target Pair in BindingDB>
http://www.bindingdb.org/jsp/dbsearch/PrimarySearch_ki.jsp?energyterm=kJ/mole&tag=r21&monomerid=490390&enzyme=Dihydroorotate+dehydrogenase&column=ki&startPg=0&Increment=50&submit=Search

> <PubChem CID>
134474496

> <PubChem SID>
447117117

$$$$

  Mrv2115 07222212352D          

 34 36  0  0  0  0            999 V2000
   -1.4289    8.0036    0.0000 C   0  0  0  0  0  0  0  0  0  0  0  0
   -0.7145    8.4161    0.0000 C   0  0  0  0  0  0  0  0  0  0  0  0
   -0.7145    9.2411    0.0000 C   0  0  0  0  0  0  0  0  0  0  0  0
   -0.0000    9.6536    0.0000 C   0  0  0  0  0  0  0  0  0  0  0  0
    0.7145    9.2411    0.0000 C   0  0  0  0  0  0  0  0  0  0  0  0
    0.7145    8.4161    0.0000 C   0  0  0  0  0  0  0  0  0  0  0  0
   -0.0000    8.0036    0.0000 C   0  0  0  0  0  0  0  0  0  0  0  0
   -0.0000    7.1786    0.0000 N   0  0  0  0  0  0  0  0  0  0  0  0
    0.7145    6.7661    0.0000 C   0  0  0  0  0  0  0  0  0  0  0  0
    1.4289    7.1786    0.0000 O   0  0  0  0  0  0  0  0  0  0  0  0
    0.7145    5.9411    0.0000 C   0  0  0  0  0  0  0  0  0  0  0  0
    1.4289    5.5286    0.0000 C   0  0  0  0  0  0  0  0  0  0  0  0
    1.4289    4.7036    0.0000 C   0  0  0  0  0  0  0  0  0  0  0  0
    2.1434    4.2911    0.0000 F   0  0  0  0  0  0  0  0  0  0  0  0
    0.7145    4.2911    0.0000 C   0  0  0  0  0  0  0  0  0  0  0  0
    0.7145    3.4661    0.0000 N   0  0  0  0  0  0  0  0  0  0  0  0
    0.0470    2.9812    0.0000 N   0  0  0  0  0  0  0  0  0  0  0  0
    0.3020    2.1965    0.0000 C   0  0  0  0  0  0  0  0  0  0  0  0
   -0.1830    1.5291    0.0000 C   0  0  0  0  0  0  0  0  0  0  0  0
    1.1270    2.1965    0.0000 N   0  0  0  0  0  0  0  0  0  0  0  0
    1.6119    1.5291    0.0000 C   0  0  0  0  0  0  0  0  0  0  0  0
    2.4324    1.6153    0.0000 C   0  0  0  0  0  0  0  0  0  0  0  0
    1.2763    0.7754    0.0000 C   0  0  0  0  0  0  0  0  0  0  0  0
    1.3819    2.9812    0.0000 C   0  0  0  0  0  0  0  0  0  0  0  0
    2.1665    3.2361    0.0000 O   0  0  0  0  0  0  0  0  0  0  0  0
    0.0000    4.7036    0.0000 C   0  0  0  0  0  0  0  0  0  0  0  0
   -0.0000    5.5286    0.0000 C   0  0  0  0  0  0  0  0  0  0  0  0
   -0.7145    5.9411    0.0000 O   0  0  0  0  0  0  0  0  0  0  0  0
   -1.4289    5.5286    0.0000 C   0  0  0  0  0  0  0  0  0  0  0  0
   -1.4289    4.7036    0.0000 C   0  0  0  0  0  0  0  0  0  0  0  0
   -2.1434    5.9411    0.0000 C   0  0  0  0  0  0  0  0  0  0  0  0
   -1.7309    6.6555    0.0000 F   0  0  0  0  0  0  0  0  0  0  0  0
   -2.5559    5.2266    0.0000 F   0  0  0  0  0  0  0  0  0  0  0  0
   -2.8579    6.3536    0.0000 F   0  0  0  0  0  0  0  0  0  0  0  0
  1  2  1  0  0  0  0
  2  3  4  0  0  0  0
  3  4  4  0  0  0  0
  4  5  4  0  0  0  0
  5  6  4  0  0  0  0
  6  7  4  0  0  0  0
  2  7  4  0  0  0  0
  7  8  1  0  0  0  0
  8  9  1  0  0  0  0
  9 10  2  0  0  0  0
  9 11  1  0  0  0  0
 11 12  4  0  0  0  0
 12 13  4  0  0  0  0
 13 14  1  0  0  0  0
 13 15  4  0  0  0  0
 15 16  1  0  0  0  0
 16 17  4  0  0  0  0
 17 18  4  0  0  0  0
 18 19  1  0  0  0  0
 18 20  4  0  0  0  0
 20 21  1  0  0  0  0
 21 22  1  0  0  0  0
 21 23  1  0  0  0  0
 20 24  4  0  0  0  0
 16 24  4  0  0  0  0
 24 25  2  0  0  0  0
 15 26  4  0  0  0  0
 26 27  4  0  0  0  0
 11 27  4  0  0  0  0
 27 28  1  0  0  0  0
 28 29  1  0  0  0  0
 29 30  1  0  0  0  0
 29 31  1  0  0  0  0
 31 32  1  0  0  0  0
 31 33  1  0  0  0  0
 31 34  1  0  0  0  0
M  END
> <IC50(uM)>
0.026649999999999997

> <Outcome>
1.0

> <BindingDB ID>
972431; 1098585; 972432; 1098586

> <BindingDB MonomerID>
470339

> <BindingDB Ligand Name>
5-fluoro-4-[3-methyl-5-oxo-4-(propan-2-yl)-4,5-dihydro-1H-1,2,4-triazol-1-yl]-N-(2-methylphenyl)-2-{[(2S)-1,1,1-trifluoropropan-2-yl]oxy}benzamide::US10815215, Example 1; 5-fluoro-4-[3-methyl-5-oxo-4-(propan-2-yl)-4,5-dihydro-1H-1,2,4-triazol-1-yl]-N-(2-methylphenyl)-2-{[(2S)-1,1,1-trifluoropropan-2-yl]oxy}benzamide::US10815215, Example 1::US11130745, Example 1

> <Curation/DataSource>
US Patent

> <Article DOI>
?

> <PMID>
?

> <Patent Number>
US10815215; US11130745

> <Authors>
Gradl, SN; Nguyen, D; Eis, K; Gunther, J; Stellfeld, T; Janzer, A; Christian, S; Muller, T; Sheikh, SE; Zhou, HJ; Zhao, C; Sykes, DB; Ferrara, SJ; Liu, K; Krober, M; Merz, C; Niehues, M; Schafer, M; Zimmermann, K; Nising, CF; Gradl, SN; Nguyen, D; Eis, K; Gunther, J; Stellfeld, T; Janzer, A; Christian, S; Muller, T; Sheikh, SE; Sykes, DB; Ferrara, SJ; Krober, M; Merz, C; Niehues, M; Schafer, M; Zimmermann, K; Nising, CF

> <Link to Ligand in BindingDB>
http://www.bindingdb.org/bind/chemsearch/marvin/MolStructure.jsp?monomerid=470339

> <Link to Ligand-Target Pair in BindingDB>
http://www.bindingdb.org/jsp/dbsearch/PrimarySearch_ki.jsp?energyterm=kJ/mole&tag=r21&monomerid=470339&enzyme=Dihydroorotate+dehydrogenase&column=ki&startPg=0&Increment=50&submit=Search

> <PubChem CID>
134469780

> <PubChem SID>
441609516

$$$$

  Mrv2115 07222212352D          

 26 28  0  0  0  0            999 V2000
    0.7145   -3.7125    0.0000 O   0  0  0  0  0  0  0  0  0  0  0  0
    1.4289   -4.1250    0.0000 C   0  0  0  0  0  0  0  0  0  0  0  0
    2.1434   -3.7125    0.0000 O   0  0  0  0  0  0  0  0  0  0  0  0
    1.4289   -4.9500    0.0000 C   0  0  0  0  0  0  0  0  0  0  0  0
    2.0964   -5.4349    0.0000 C   0  0  0  0  0  0  0  0  0  0  0  0
    2.8810   -5.1800    0.0000 C   0  0  0  0  0  0  0  0  0  0  0  0
    3.4941   -5.7320    0.0000 O   0  0  0  0  0  0  0  0  0  0  0  0
    3.0525   -4.3730    0.0000 N   0  0  0  0  0  0  0  0  0  0  0  0
    3.8372   -4.1181    0.0000 C   0  0  0  0  0  0  0  0  0  0  0  0
    4.0087   -3.3111    0.0000 C   0  0  0  0  0  0  0  0  0  0  0  0
    3.3956   -2.7591    0.0000 F   0  0  0  0  0  0  0  0  0  0  0  0
    4.7933   -3.0562    0.0000 C   0  0  0  0  0  0  0  0  0  0  0  0
    5.4064   -3.6082    0.0000 C   0  0  0  0  0  0  0  0  0  0  0  0
    6.1910   -3.3533    0.0000 C   0  0  0  0  0  0  0  0  0  0  0  0
    6.3625   -2.5463    0.0000 C   0  0  0  0  0  0  0  0  0  0  0  0
    7.1472   -2.2913    0.0000 C   0  0  0  0  0  0  0  0  0  0  0  0
    7.7603   -2.8434    0.0000 C   0  0  0  0  0  0  0  0  0  0  0  0
    7.5887   -3.6503    0.0000 C   0  0  0  0  0  0  0  0  0  0  0  0
    6.8041   -3.9053    0.0000 C   0  0  0  0  0  0  0  0  0  0  0  0
    6.6326   -4.7123    0.0000 Cl  0  0  0  0  0  0  0  0  0  0  0  0
    5.2349   -4.4152    0.0000 C   0  0  0  0  0  0  0  0  0  0  0  0
    4.4502   -4.6701    0.0000 C   0  0  0  0  0  0  0  0  0  0  0  0
    4.2787   -5.4771    0.0000 F   0  0  0  0  0  0  0  0  0  0  0  0
    1.8414   -6.2195    0.0000 C   0  0  0  0  0  0  0  0  0  0  0  0
    1.0164   -6.2195    0.0000 C   0  0  0  0  0  0  0  0  0  0  0  0
    0.7615   -5.4349    0.0000 C   0  0  0  0  0  0  0  0  0  0  0  0
  1  2  2  0  0  0  0
  2  3  1  0  0  0  0
  2  4  1  0  0  0  0
  4  5  2  0  0  0  0
  5  6  1  0  0  0  0
  6  7  2  0  0  0  0
  6  8  1  0  0  0  0
  8  9  1  0  0  0  0
  9 10  4  0  0  0  0
 10 11  1  0  0  0  0
 10 12  4  0  0  0  0
 12 13  4  0  0  0  0
 13 14  1  0  0  0  0
 14 15  4  0  0  0  0
 15 16  4  0  0  0  0
 16 17  4  0  0  0  0
 17 18  4  0  0  0  0
 18 19  4  0  0  0  0
 14 19  4  0  0  0  0
 19 20  1  0  0  0  0
 13 21  4  0  0  0  0
 21 22  4  0  0  0  0
  9 22  4  0  0  0  0
 22 23  1  0  0  0  0
  5 24  1  0  0  0  0
 24 25  1  0  0  0  0
 25 26  1  0  0  0  0
  4 26  1  0  0  0  0
M  END
> <IC50(uM)>
0.018

> <Outcome>
1.0

> <BindingDB ID>
50251727

> <BindingDB MonomerID>
50137312

> <BindingDB Ligand Name>
2-(2'-Chloro-3,5-difluoro-biphenyl-4-ylcarbamoyl)-cyclopent-1-enecarboxylic acid::CHEMBL345147

> <Curation/DataSource>
ChEMBL

> <Article DOI>
10.1016/j.bmcl.2003.10.021

> <PMID>
14684297

> <Patent Number>
?

> <Authors>
Leban, J; Saeb, W; Garcia, G; Baumgartner, R; Kramer, B

> <Link to Ligand in BindingDB>
http://www.bindingdb.org/bind/chemsearch/marvin/MolStructure.jsp?monomerid=50137312

> <Link to Ligand-Target Pair in BindingDB>
http://www.bindingdb.org/jsp/dbsearch/PrimarySearch_ki.jsp?energyterm=kJ/mole&tag=r21&monomerid=50137312&enzyme=Dihydroorotate+dehydrogenase&column=ki&startPg=0&Increment=50&submit=Search

> <PubChem CID>
44369573

> <PubChem SID>
104027478

$$$$

  Mrv2115 07222212352D          

 36 39  0  0  0  0            999 V2000
   -3.1034    3.5889    0.0000 C   0  0  0  0  0  0  0  0  0  0  0  0
   -2.6909    2.8744    0.0000 O   0  0  0  0  0  0  0  0  0  0  0  0
   -3.1034    2.1599    0.0000 C   0  0  0  0  0  0  0  0  0  0  0  0
   -3.9284    2.1599    0.0000 C   0  0  0  0  0  0  0  0  0  0  0  0
   -4.3409    1.4455    0.0000 C   0  0  0  0  0  0  0  0  0  0  0  0
   -5.1659    1.4455    0.0000 C   0  0  0  0  0  0  0  0  0  0  0  0
   -3.9284    0.7310    0.0000 C   0  0  0  0  0  0  0  0  0  0  0  0
   -4.3409    0.0165    0.0000 N   0  0  0  0  0  0  0  0  0  0  0  0
   -3.9284   -0.6979    0.0000 C   0  0  0  0  0  0  0  0  0  0  0  0
   -4.3409   -1.4124    0.0000 O   0  0  0  0  0  0  0  0  0  0  0  0
   -3.1034   -0.6979    0.0000 C   0  0  0  0  0  0  0  0  0  0  0  0
   -2.6909    0.0165    0.0000 C   0  0  0  0  0  0  0  0  0  0  0  0
   -1.8659    0.0165    0.0000 C   0  0  0  0  0  0  0  0  0  0  0  0
   -1.4534    0.7310    0.0000 F   0  0  0  0  0  0  0  0  0  0  0  0
   -1.4534   -0.6979    0.0000 C   0  0  0  0  0  0  0  0  0  0  0  0
   -0.6284   -0.6979    0.0000 N   0  0  0  0  0  0  0  0  0  0  0  0
   -0.1435   -1.3654    0.0000 N   0  0  0  0  0  0  0  0  0  0  0  0
    0.6411   -1.1104    0.0000 C   0  0  0  0  0  0  0  0  0  0  0  0
    0.6411   -0.2854    0.0000 N   0  0  0  0  0  0  0  0  0  0  0  0
   -0.1435   -0.0305    0.0000 C   0  0  0  0  0  0  0  0  0  0  0  0
   -0.3984    0.7541    0.0000 O   0  0  0  0  0  0  0  0  0  0  0  0
    1.3556    0.1271    0.0000 C   0  0  0  0  0  0  0  0  0  0  0  0
    2.0701   -0.2854    0.0000 C   0  0  0  0  0  0  0  0  0  0  0  0
    2.0701   -1.1104    0.0000 O   0  0  0  0  0  0  0  0  0  0  0  0
    1.3556   -1.5229    0.0000 C   0  0  0  0  0  0  0  0  0  0  0  0
   -1.8659   -1.4124    0.0000 C   0  0  0  0  0  0  0  0  0  0  0  0
   -2.6909   -1.4124    0.0000 C   0  0  0  0  0  0  0  0  0  0  0  0
   -3.1034   -2.1269    0.0000 O   0  0  0  0  0  0  0  0  0  0  0  0
   -2.6909   -2.8414    0.0000 C   0  0  0  0  0  0  0  0  0  0  0  0
   -1.8659   -2.8414    0.0000 C   0  0  0  0  0  0  0  0  0  0  0  0
   -3.1034   -3.5558    0.0000 C   0  0  0  0  0  0  0  0  0  0  0  0
   -3.8179   -3.1433    0.0000 F   0  0  0  0  0  0  0  0  0  0  0  0
   -2.3890   -3.9683    0.0000 F   0  0  0  0  0  0  0  0  0  0  0  0
   -3.5159   -4.2703    0.0000 F   0  0  0  0  0  0  0  0  0  0  0  0
   -3.1034    0.7310    0.0000 C   0  0  0  0  0  0  0  0  0  0  0  0
   -2.6909    1.4455    0.0000 N   0  0  0  0  0  0  0  0  0  0  0  0
  1  2  1  0  0  0  0
  2  3  1  0  0  0  0
  3  4  4  0  0  0  0
  4  5  4  0  0  0  0
  5  6  1  0  0  0  0
  5  7  4  0  0  0  0
  7  8  1  0  0  0  0
  8  9  1  0  0  0  0
  9 10  2  0  0  0  0
  9 11  1  0  0  0  0
 11 12  4  0  0  0  0
 12 13  4  0  0  0  0
 13 14  1  0  0  0  0
 13 15  4  0  0  0  0
 15 16  1  0  0  0  0
 16 17  4  0  0  0  0
 17 18  4  0  0  0  0
 18 19  4  0  0  0  0
 19 20  4  0  0  0  0
 16 20  4  0  0  0  0
 20 21  2  0  0  0  0
 19 22  1  0  0  0  0
 22 23  1  0  0  0  0
 23 24  1  0  0  0  0
 24 25  1  0  0  0  0
 18 25  1  0  0  0  0
 15 26  4  0  0  0  0
 26 27  4  0  0  0  0
 11 27  4  0  0  0  0
 27 28  1  0  0  0  0
 28 29  1  0  0  0  0
 29 30  1  0  0  0  0
 29 31  1  0  0  0  0
 31 32  1  0  0  0  0
 31 33  1  0  0  0  0
 31 34  1  0  0  0  0
  7 35  4  0  0  0  0
 35 36  4  0  0  0  0
  3 36  4  0  0  0  0
M  END
> <IC50(uM)>
0.315

> <Outcome>
1.0

> <BindingDB ID>
1020574

> <BindingDB MonomerID>
490513

> <BindingDB Ligand Name>
5-fluoro-N-(6-methoxy-4-methylpyridin-3-yl)-4-(3-oxo-5,6-dihydro-3H-[1,2,4]triazolo[3,4-c]-[1,4]oxazin-2(8H)-yl)-2-{[(2S)-1,1,1-trifluoropropan-2-yl]oxy}benzamide::US10968216, Example 181

> <Curation/DataSource>
US Patent

> <Article DOI>
?

> <PMID>
?

> <Patent Number>
US10968216

> <Authors>
Gradl, SN; Nguyen, D; Eis, K; Gunther, J; Stellfeld, T; Janzer, A; Christian, S; Mueller, T; Sheikh, SE; Zhou, HJ; Zhao, C; Sykes, DB; Ferrara, SJ; Liu, K; Herbert, SA; Merz, C; Niehues, M; Nising, CF; Schafer, M; Zimmermann, K; Knablein, J; Thede, K; Faupel, T

> <Link to Ligand in BindingDB>
http://www.bindingdb.org/bind/chemsearch/marvin/MolStructure.jsp?monomerid=490513

> <Link to Ligand-Target Pair in BindingDB>
http://www.bindingdb.org/jsp/dbsearch/PrimarySearch_ki.jsp?energyterm=kJ/mole&tag=r21&monomerid=490513&enzyme=Dihydroorotate+dehydrogenase&column=ki&startPg=0&Increment=50&submit=Search

> <PubChem CID>
142335884

> <PubChem SID>
447117240

$$$$

  Mrv2115 07222212352D          

 34 37  0  0  0  0            999 V2000
    6.7857   -4.3790    0.0000 C   0  0  0  0  0  0  0  0  0  0  0  0
    5.9652   -4.2927    0.0000 C   0  0  0  0  0  0  0  0  0  0  0  0
    5.6296   -3.5391    0.0000 O   0  0  0  0  0  0  0  0  0  0  0  0
    4.8092   -3.4528    0.0000 C   0  0  0  0  0  0  0  0  0  0  0  0
    4.3242   -4.1203    0.0000 C   0  0  0  0  0  0  0  0  0  0  0  0
    3.5038   -4.0340    0.0000 C   0  0  0  0  0  0  0  0  0  0  0  0
    3.0188   -4.7015    0.0000 N   0  0  0  0  0  0  0  0  0  0  0  0
    3.2738   -5.4861    0.0000 N   0  0  0  0  0  0  0  0  0  0  0  0
    2.6063   -5.9710    0.0000 C   0  0  0  0  0  0  0  0  0  0  0  0
    2.6063   -6.7960    0.0000 C   0  0  0  0  0  0  0  0  0  0  0  0
    3.0188   -7.5105    0.0000 C   0  0  0  0  0  0  0  0  0  0  0  0
    2.1938   -7.5105    0.0000 C   0  0  0  0  0  0  0  0  0  0  0  0
    1.9389   -5.4861    0.0000 N   0  0  0  0  0  0  0  0  0  0  0  0
    1.1543   -5.7410    0.0000 C   0  0  0  0  0  0  0  0  0  0  0  0
    2.1938   -4.7015    0.0000 C   0  0  0  0  0  0  0  0  0  0  0  0
    1.7089   -4.0340    0.0000 O   0  0  0  0  0  0  0  0  0  0  0  0
    3.1682   -3.2804    0.0000 C   0  0  0  0  0  0  0  0  0  0  0  0
    2.3477   -3.1941    0.0000 F   0  0  0  0  0  0  0  0  0  0  0  0
    3.6531   -2.6129    0.0000 C   0  0  0  0  0  0  0  0  0  0  0  0
    4.4736   -2.6992    0.0000 C   0  0  0  0  0  0  0  0  0  0  0  0
    4.9585   -2.0317    0.0000 C   0  0  0  0  0  0  0  0  0  0  0  0
    5.7790   -2.1180    0.0000 O   0  0  0  0  0  0  0  0  0  0  0  0
    4.6230   -1.2780    0.0000 N   0  0  0  0  0  0  0  0  0  0  0  0
    5.1079   -0.6106    0.0000 C   0  0  0  0  0  0  0  0  0  0  0  0
    4.7723    0.1431    0.0000 C   0  0  0  0  0  0  0  0  0  0  0  0
    5.2573    0.8105    0.0000 C   0  0  0  0  0  0  0  0  0  0  0  0
    6.0777    0.7243    0.0000 C   0  0  0  0  0  0  0  0  0  0  0  0
    6.4133   -0.0294    0.0000 C   0  0  0  0  0  0  0  0  0  0  0  0
    5.9284   -0.6968    0.0000 C   0  0  0  0  0  0  0  0  0  0  0  0
    6.2639   -1.4505    0.0000 F   0  0  0  0  0  0  0  0  0  0  0  0
    5.4803   -4.9602    0.0000 C   0  0  0  0  0  0  0  0  0  0  0  0
    4.8128   -4.4753    0.0000 F   0  0  0  0  0  0  0  0  0  0  0  0
    6.1477   -5.4451    0.0000 F   0  0  0  0  0  0  0  0  0  0  0  0
    4.9954   -5.6276    0.0000 F   0  0  0  0  0  0  0  0  0  0  0  0
  1  2  1  0  0  0  0
  2  3  1  0  0  0  0
  3  4  1  0  0  0  0
  4  5  4  0  0  0  0
  5  6  4  0  0  0  0
  6  7  1  0  0  0  0
  7  8  4  0  0  0  0
  8  9  4  0  0  0  0
  9 10  1  0  0  0  0
 10 11  1  0  0  0  0
 11 12  1  0  0  0  0
 10 12  1  0  0  0  0
  9 13  4  0  0  0  0
 13 14  1  0  0  0  0
 13 15  4  0  0  0  0
  7 15  4  0  0  0  0
 15 16  2  0  0  0  0
  6 17  4  0  0  0  0
 17 18  1  0  0  0  0
 17 19  4  0  0  0  0
 19 20  4  0  0  0  0
  4 20  4  0  0  0  0
 20 21  1  0  0  0  0
 21 22  2  0  0  0  0
 21 23  1  0  0  0  0
 23 24  1  0  0  0  0
 24 25  4  0  0  0  0
 25 26  4  0  0  0  0
 26 27  4  0  0  0  0
 27 28  4  0  0  0  0
 28 29  4  0  0  0  0
 24 29  4  0  0  0  0
 29 30  1  0  0  0  0
  2 31  1  0  0  0  0
 31 32  1  0  0  0  0
 31 33  1  0  0  0  0
 31 34  1  0  0  0  0
M  END
> <IC50(uM)>
0.16

> <Outcome>
1.0

> <BindingDB ID>
1098669; 972515

> <BindingDB MonomerID>
470390

> <BindingDB Ligand Name>
4-(3-cyclopropyl-4-methyl-5-oxo-4,5-dihydro-1H-1,2,4-triazol-1-yl)-5-fluoro-N-(2-fluorophenyl)-2-{[(2S)-1,1,1-trifluoropropan-2-yl]oxy}benzamide::US10815215, Example 49::US11130745, Example 49; 4-(3-cyclopropyl-4-methyl-5-oxo-4,5-dihydro-1H-1,2,4-triazol-1-yl)-5-fluoro-N-(2-fluorophenyl)-2-{[(2S)-1,1,1-trifluoropropan-2-yl]oxy}benzamide::US10815215, Example 49

> <Curation/DataSource>
US Patent

> <Article DOI>
?

> <PMID>
?

> <Patent Number>
US11130745; US10815215

> <Authors>
Gradl, SN; Nguyen, D; Eis, K; Gunther, J; Stellfeld, T; Janzer, A; Christian, S; Muller, T; Sheikh, SE; Sykes, DB; Ferrara, SJ; Krober, M; Merz, C; Niehues, M; Schafer, M; Zimmermann, K; Nising, CF; Gradl, SN; Nguyen, D; Eis, K; Gunther, J; Stellfeld, T; Janzer, A; Christian, S; Muller, T; Sheikh, SE; Zhou, HJ; Zhao, C; Sykes, DB; Ferrara, SJ; Liu, K; Krober, M; Merz, C; Niehues, M; Schafer, M; Zimmermann, K; Nising, CF

> <Link to Ligand in BindingDB>
http://www.bindingdb.org/bind/chemsearch/marvin/MolStructure.jsp?monomerid=470390

> <Link to Ligand-Target Pair in BindingDB>
http://www.bindingdb.org/jsp/dbsearch/PrimarySearch_ki.jsp?energyterm=kJ/mole&tag=r21&monomerid=470390&enzyme=Dihydroorotate+dehydrogenase&column=ki&startPg=0&Increment=50&submit=Search

> <PubChem CID>
134470225

> <PubChem SID>
441609567

$$$$

  Mrv2115 07222212352D          

 21 22  0  0  0  0            999 V2000
    2.1434   -3.7125    0.0000 N   0  0  0  0  0  0  0  0  0  0  0  0
    2.1434   -2.8875    0.0000 C   0  0  0  0  0  0  0  0  0  0  0  0
    2.1434   -2.0625    0.0000 C   0  0  0  0  0  0  0  0  0  0  0  0
    1.4289   -1.6500    0.0000 C   0  0  0  0  0  0  0  0  0  0  0  0
    1.4289   -0.8250    0.0000 O   0  0  0  0  0  0  0  0  0  0  0  0
    0.7145   -2.0625    0.0000 N   0  0  0  0  0  0  0  0  0  0  0  0
    0.0000   -1.6500    0.0000 C   0  0  0  0  0  0  0  0  0  0  0  0
   -0.7145   -2.0625    0.0000 C   0  0  0  0  0  0  0  0  0  0  0  0
   -1.4289   -1.6500    0.0000 C   0  0  0  0  0  0  0  0  0  0  0  0
   -1.4289   -0.8250    0.0000 C   0  0  0  0  0  0  0  0  0  0  0  0
   -2.1434   -0.4125    0.0000 C   0  0  0  0  0  0  0  0  0  0  0  0
   -2.8579    0.0000    0.0000 F   0  0  0  0  0  0  0  0  0  0  0  0
   -2.5559   -1.1270    0.0000 F   0  0  0  0  0  0  0  0  0  0  0  0
   -1.7309    0.3020    0.0000 F   0  0  0  0  0  0  0  0  0  0  0  0
   -0.7145   -0.4125    0.0000 C   0  0  0  0  0  0  0  0  0  0  0  0
    0.0000   -0.8250    0.0000 C   0  0  0  0  0  0  0  0  0  0  0  0
    2.8579   -1.6500    0.0000 C   0  0  0  0  0  0  0  0  0  0  0  0
    2.8579   -0.8250    0.0000 O   0  0  0  0  0  0  0  0  0  0  0  0
    3.5724   -2.0625    0.0000 C   0  0  0  0  0  0  0  0  0  0  0  0
    4.3974   -2.0625    0.0000 C   0  0  0  0  0  0  0  0  0  0  0  0
    3.9849   -2.7770    0.0000 C   0  0  0  0  0  0  0  0  0  0  0  0
  1  2  3  0  0  0  0
  2  3  1  0  0  0  0
  3  4  1  0  0  0  0
  4  5  2  0  0  0  0
  4  6  1  0  0  0  0
  6  7  1  0  0  0  0
  7  8  4  0  0  0  0
  8  9  4  0  0  0  0
  9 10  4  0  0  0  0
 10 11  1  0  0  0  0
 11 12  1  0  0  0  0
 11 13  1  0  0  0  0
 11 14  1  0  0  0  0
 10 15  4  0  0  0  0
 15 16  4  0  0  0  0
  7 16  4  0  0  0  0
  3 17  1  0  0  0  0
 17 18  2  0  0  0  0
 17 19  1  0  0  0  0
 19 20  1  0  0  0  0
 20 21  1  0  0  0  0
 19 21  1  0  0  0  0
M  END
> <IC50(uM)>
0.117

> <Outcome>
1.0

> <BindingDB ID>
52784

> <BindingDB MonomerID>
29024

> <BindingDB Ligand Name>
CHEMBL141732::cyanocyclopropylpropenamide, 4

> <Curation/DataSource>
Curated from the literature by BindingDB

> <Article DOI>
10.1021/jm800963t

> <PMID>
19351152

> <Patent Number>
?

> <Authors>
Davies, M; Heikkil&auml;, T; McConkey, GA; Fishwick, CW; Parsons, MR; Johnson, AP

> <Link to Ligand in BindingDB>
http://www.bindingdb.org/bind/chemsearch/marvin/MolStructure.jsp?monomerid=29024

> <Link to Ligand-Target Pair in BindingDB>
http://www.bindingdb.org/jsp/dbsearch/PrimarySearch_ki.jsp?energyterm=kJ/mole&tag=r21&monomerid=29024&enzyme=Dihydroorotate+dehydrogenase&column=ki&startPg=0&Increment=50&submit=Search

> <PubChem CID>
15411780

> <PubChem SID>
81054453

$$$$

  Mrv2115 07222212352D          

 19 21  0  0  0  0            999 V2000
   -0.2934    3.3000    0.0000 C   0  0  0  0  0  0  0  0  0  0  0  0
    0.4210    3.7125    0.0000 C   0  0  0  0  0  0  0  0  0  0  0  0
    1.1355    3.3000    0.0000 C   0  0  0  0  0  0  0  0  0  0  0  0
    1.8500    3.7125    0.0000 C   0  0  0  0  0  0  0  0  0  0  0  0
    2.5645    3.3000    0.0000 C   0  0  0  0  0  0  0  0  0  0  0  0
    2.5645    2.4750    0.0000 C   0  0  0  0  0  0  0  0  0  0  0  0
    3.2789    2.0625    0.0000 N   0  0  0  0  0  0  0  0  0  0  0  0
    3.2789    1.2375    0.0000 C   0  0  0  0  0  0  0  0  0  0  0  0
    3.9934    0.8250    0.0000 C   0  0  0  0  0  0  0  0  0  0  0  0
    3.9934    0.0000    0.0000 C   0  0  0  0  0  0  0  0  0  0  0  0
    4.7079   -0.4125    0.0000 C   0  0  0  0  0  0  0  0  0  0  0  0
    3.2789   -0.4125    0.0000 N   0  0  0  0  0  0  0  0  0  0  0  0
    2.5645    0.0000    0.0000 C   0  0  0  0  0  0  0  0  0  0  0  0
    1.7798   -0.2549    0.0000 N   0  0  0  0  0  0  0  0  0  0  0  0
    1.2949    0.4125    0.0000 C   0  0  0  0  0  0  0  0  0  0  0  0
    1.7798    1.0799    0.0000 N   0  0  0  0  0  0  0  0  0  0  0  0
    2.5645    0.8250    0.0000 N   0  0  0  0  0  0  0  0  0  0  0  0
    1.8500    2.0625    0.0000 C   0  0  0  0  0  0  0  0  0  0  0  0
    1.1355    2.4750    0.0000 C   0  0  0  0  0  0  0  0  0  0  0  0
  1  2  2  0  0  0  0
  2  3  1  0  0  0  0
  3  4  4  0  0  0  0
  4  5  4  0  0  0  0
  5  6  4  0  0  0  0
  6  7  1  0  0  0  0
  7  8  1  0  0  0  0
  8  9  4  0  0  0  0
  9 10  4  0  0  0  0
 10 11  1  0  0  0  0
 10 12  4  0  0  0  0
 12 13  4  0  0  0  0
 13 14  4  0  0  0  0
 14 15  4  0  0  0  0
 15 16  4  0  0  0  0
 16 17  4  0  0  0  0
  8 17  4  0  0  0  0
 13 17  4  0  0  0  0
  6 18  4  0  0  0  0
 18 19  4  0  0  0  0
  3 19  4  0  0  0  0
M  END
> <IC50(uM)>
100.0

> <Outcome>
0.0

> <BindingDB ID>
50643171

> <BindingDB MonomerID>
50345418

> <BindingDB Ligand Name>
CHEMBL1784563::N-(4-Vinylphenyl)-5-methyl-[1,2,4]triazolo[1,5-a]pyrimidin-7-amine

> <Curation/DataSource>
ChEMBL

> <Article DOI>
10.1021/jm200265b

> <PMID>
21517059

> <Patent Number>
?

> <Authors>
Gujjar, R; El Mazouni, F; White, KL; White, J; Creason, S; Shackleford, DM; Deng, X; Charman, WN; Bathurst, I; Burrows, J; Floyd, DM; Matthews, D; Buckner, FS; Charman, SA; Phillips, MA; Rathod, PK

> <Link to Ligand in BindingDB>
http://www.bindingdb.org/bind/chemsearch/marvin/MolStructure.jsp?monomerid=50345418

> <Link to Ligand-Target Pair in BindingDB>
http://www.bindingdb.org/jsp/dbsearch/PrimarySearch_ki.jsp?energyterm=kJ/mole&tag=r21&monomerid=50345418&enzyme=Dihydroorotate+dehydrogenase&column=ki&startPg=0&Increment=50&submit=Search

> <PubChem CID>
44131574

> <PubChem SID>
131348354

$$$$

  Mrv2115 07222212352D          

 22 24  0  0  0  0            999 V2000
    4.0668    3.1729    0.0000 C   0  0  0  0  0  0  0  0  0  0  0  0
    4.0668    2.3479    0.0000 C   0  0  0  0  0  0  0  0  0  0  0  0
    3.3523    1.9354    0.0000 C   0  0  0  0  0  0  0  0  0  0  0  0
    3.3523    1.1104    0.0000 C   0  0  0  0  0  0  0  0  0  0  0  0
    2.6378    0.6979    0.0000 C   0  0  0  0  0  0  0  0  0  0  0  0
    2.6378   -0.1271    0.0000 N   0  0  0  0  0  0  0  0  0  0  0  0
    1.9233   -0.5396    0.0000 C   0  0  0  0  0  0  0  0  0  0  0  0
    1.9233   -1.3646    0.0000 C   0  0  0  0  0  0  0  0  0  0  0  0
    1.2089   -1.7771    0.0000 C   0  0  0  0  0  0  0  0  0  0  0  0
    0.4944   -1.3646    0.0000 C   0  0  0  0  0  0  0  0  0  0  0  0
   -0.2201   -1.7771    0.0000 C   0  0  0  0  0  0  0  0  0  0  0  0
   -0.9345   -2.1896    0.0000 F   0  0  0  0  0  0  0  0  0  0  0  0
   -0.6326   -1.0626    0.0000 F   0  0  0  0  0  0  0  0  0  0  0  0
    0.1924   -2.4915    0.0000 F   0  0  0  0  0  0  0  0  0  0  0  0
    0.4944   -0.5396    0.0000 C   0  0  0  0  0  0  0  0  0  0  0  0
    1.2089   -0.1271    0.0000 C   0  0  0  0  0  0  0  0  0  0  0  0
    1.9233    1.1104    0.0000 N   0  0  0  0  0  0  0  0  0  0  0  0
    1.1387    0.8555    0.0000 N   0  0  0  0  0  0  0  0  0  0  0  0
    0.6538    1.5229    0.0000 C   0  0  0  0  0  0  0  0  0  0  0  0
    1.1387    2.1904    0.0000 N   0  0  0  0  0  0  0  0  0  0  0  0
    1.9233    1.9354    0.0000 C   0  0  0  0  0  0  0  0  0  0  0  0
    2.6378    2.3479    0.0000 N   0  0  0  0  0  0  0  0  0  0  0  0
  1  2  1  0  0  0  0
  2  3  1  0  0  0  0
  3  4  4  0  0  0  0
  4  5  4  0  0  0  0
  5  6  1  0  0  0  0
  6  7  1  0  0  0  0
  7  8  4  0  0  0  0
  8  9  4  0  0  0  0
  9 10  4  0  0  0  0
 10 11  1  0  0  0  0
 11 12  1  0  0  0  0
 11 13  1  0  0  0  0
 11 14  1  0  0  0  0
 10 15  4  0  0  0  0
 15 16  4  0  0  0  0
  7 16  4  0  0  0  0
  5 17  4  0  0  0  0
 17 18  4  0  0  0  0
 18 19  4  0  0  0  0
 19 20  4  0  0  0  0
 20 21  4  0  0  0  0
 17 21  4  0  0  0  0
 21 22  4  0  0  0  0
  3 22  4  0  0  0  0
M  END
> <IC50(uM)>
100.0

> <Outcome>
0.0

> <BindingDB ID>
50643194

> <BindingDB MonomerID>
50345434

> <BindingDB Ligand Name>
5-Ethyl-N-(4-trifluoromethyl)phenyl-[1,2,4]triazolo[1,5-a]pyrimidin-7-amine::CHEMBL1784711

> <Curation/DataSource>
ChEMBL

> <Article DOI>
10.1021/jm200265b

> <PMID>
21517059

> <Patent Number>
?

> <Authors>
Gujjar, R; El Mazouni, F; White, KL; White, J; Creason, S; Shackleford, DM; Deng, X; Charman, WN; Bathurst, I; Burrows, J; Floyd, DM; Matthews, D; Buckner, FS; Charman, SA; Phillips, MA; Rathod, PK

> <Link to Ligand in BindingDB>
http://www.bindingdb.org/bind/chemsearch/marvin/MolStructure.jsp?monomerid=50345434

> <Link to Ligand-Target Pair in BindingDB>
http://www.bindingdb.org/jsp/dbsearch/PrimarySearch_ki.jsp?energyterm=kJ/mole&tag=r21&monomerid=50345434&enzyme=Dihydroorotate+dehydrogenase&column=ki&startPg=0&Increment=50&submit=Search

> <PubChem CID>
53259245

> <PubChem SID>
131348370

$$$$

  Mrv2115 07222212352D          

 15 15  0  0  0  0            999 V2000
   -0.7145    3.7125    0.0000 N   0  0  0  0  0  0  0  0  0  0  0  0
    0.0000    3.3000    0.0000 C   0  0  0  0  0  0  0  0  0  0  0  0
    0.0000    2.4750    0.0000 C   0  0  0  0  0  0  0  0  0  0  0  0
    0.7145    2.0625    0.0000 C   0  0  0  0  0  0  0  0  0  0  0  0
    0.7145    1.2375    0.0000 C   0  0  0  0  0  0  0  0  0  0  0  0
    1.4289    0.8250    0.0000 C   0  0  0  0  0  0  0  0  0  0  0  0
    2.1434    1.2375    0.0000 C   0  0  0  0  0  0  0  0  0  0  0  0
    2.8579    0.8250    0.0000 O   0  0  0  0  0  0  0  0  0  0  0  0
    2.1434    2.0625    0.0000 O   0  0  0  0  0  0  0  0  0  0  0  0
    1.4289   -0.0000    0.0000 N   0  0  0  0  0  0  0  0  0  0  0  0
    0.7145   -0.4125    0.0000 C   0  0  0  0  0  0  0  0  0  0  0  0
    0.7145   -1.2375    0.0000 O   0  0  0  0  0  0  0  0  0  0  0  0
    0.0000    0.0000    0.0000 N   0  0  0  0  0  0  0  0  0  0  0  0
    0.0000    0.8250    0.0000 C   0  0  0  0  0  0  0  0  0  0  0  0
   -0.7145    1.2375    0.0000 O   0  0  0  0  0  0  0  0  0  0  0  0
  1  2  1  0  0  0  0
  2  3  1  0  0  0  0
  3  4  1  0  0  0  0
  4  5  1  0  0  0  0
  5  6  4  0  0  0  0
  6  7  1  0  0  0  0
  7  8  2  0  0  0  0
  7  9  1  0  0  0  0
  6 10  4  0  0  0  0
 10 11  4  0  0  0  0
 11 12  2  0  0  0  0
 11 13  4  0  0  0  0
 13 14  4  0  0  0  0
  5 14  4  0  0  0  0
 14 15  2  0  0  0  0
M  STY  2   1 DAT   2 DAT
M  SAL   1  1  10
M  SDT   1 MRV_IMPLICIT_H                                        
M  SDD   1     0.5304   -0.4125    DR    ALL  0       0  
M  SED   1 IMPL_H1
M  SAL   2  1  13
M  SDT   2 MRV_IMPLICIT_H                                        
M  SDD   2     0.5304   -0.4125    DR    ALL  0       0  
M  SED   2 IMPL_H1
M  END
> <IC50(uM)>
0.625

> <Outcome>
1.0

> <BindingDB ID>
50555383

> <BindingDB MonomerID>
50211950

> <BindingDB Ligand Name>
CHEMBL3891863

> <Curation/DataSource>
ChEMBL

> <Article DOI>
10.1016/j.bmc.2017.01.009

> <PMID>
28118956

> <Patent Number>
?

> <Authors>
Inaoka, DK; Iida, M; Hashimoto, S; Tabuchi, T; Kuranaga, T; Balogun, EO; Honma, T; Tanaka, A; Harada, S; Nara, T; Kita, K; Inoue, M

> <Link to Ligand in BindingDB>
http://www.bindingdb.org/bind/chemsearch/marvin/MolStructure.jsp?monomerid=50211950

> <Link to Ligand-Target Pair in BindingDB>
http://www.bindingdb.org/jsp/dbsearch/PrimarySearch_ki.jsp?energyterm=kJ/mole&tag=r21&monomerid=50211950&enzyme=Dihydroorotate+dehydrogenase&column=ki&startPg=0&Increment=50&submit=Search

> <PubChem CID>
134136454

> <PubChem SID>
375983075

$$$$

  Mrv2115 07222212352D          

 32 35  0  0  0  0            999 V2000
    0.7145   -2.8875    0.0000 C   0  0  0  0  0  0  0  0  0  0  0  0
    0.0000   -2.4750    0.0000 C   0  0  0  0  0  0  0  0  0  0  0  0
   -0.7145   -2.8875    0.0000 C   0  0  0  0  0  0  0  0  0  0  0  0
   -1.4289   -2.4750    0.0000 C   0  0  0  0  0  0  0  0  0  0  0  0
   -1.4289   -1.6500    0.0000 C   0  0  0  0  0  0  0  0  0  0  0  0
   -0.7145   -1.2375    0.0000 C   0  0  0  0  0  0  0  0  0  0  0  0
    0.0000   -1.6500    0.0000 C   0  0  0  0  0  0  0  0  0  0  0  0
    0.7145   -1.2375    0.0000 N   0  0  0  0  0  0  0  0  0  0  0  0
    0.7145   -0.4125    0.0000 C   0  0  0  0  0  0  0  0  0  0  0  0
    1.4289    0.0000    0.0000 C   0  0  0  0  0  0  0  0  0  0  0  0
    1.4289    0.8250    0.0000 C   0  0  0  0  0  0  0  0  0  0  0  0
    2.1434    1.2375    0.0000 C   0  0  0  0  0  0  0  0  0  0  0  0
    0.7145    1.2375    0.0000 C   0  0  0  0  0  0  0  0  0  0  0  0
    2.1434   -0.4125    0.0000 C   0  0  0  0  0  0  0  0  0  0  0  0
    2.8579    0.0000    0.0000 C   0  0  0  0  0  0  0  0  0  0  0  0
    3.5724   -0.4125    0.0000 C   0  0  0  0  0  0  0  0  0  0  0  0
    4.2868   -0.0000    0.0000 C   0  0  0  0  0  0  0  0  0  0  0  0
    4.3731    0.8205    0.0000 N   0  0  0  0  0  0  0  0  0  0  0  0
    5.1800    0.9920    0.0000 C   0  0  0  0  0  0  0  0  0  0  0  0
    5.5156    1.7457    0.0000 C   0  0  0  0  0  0  0  0  0  0  0  0
    5.8511    2.4994    0.0000 C   0  0  0  0  0  0  0  0  0  0  0  0
    6.2693    1.4101    0.0000 C   0  0  0  0  0  0  0  0  0  0  0  0
    4.7619    2.0812    0.0000 O   0  0  0  0  0  0  0  0  0  0  0  0
    5.5925    0.2775    0.0000 N   0  0  0  0  0  0  0  0  0  0  0  0
    6.4130    0.1913    0.0000 C   0  0  0  0  0  0  0  0  0  0  0  0
    5.0405   -0.3356    0.0000 N   0  0  0  0  0  0  0  0  0  0  0  0
    3.5724   -1.2375    0.0000 C   0  0  0  0  0  0  0  0  0  0  0  0
    4.2868   -1.6500    0.0000 F   0  0  0  0  0  0  0  0  0  0  0  0
    2.8579   -1.6500    0.0000 C   0  0  0  0  0  0  0  0  0  0  0  0
    2.1434   -1.2375    0.0000 C   0  0  0  0  0  0  0  0  0  0  0  0
    1.4289   -1.6500    0.0000 C   0  0  0  0  0  0  0  0  0  0  0  0
    1.4289   -2.4750    0.0000 O   0  0  0  0  0  0  0  0  0  0  0  0
  1  2  1  0  0  0  0
  2  3  4  0  0  0  0
  3  4  4  0  0  0  0
  4  5  4  0  0  0  0
  5  6  4  0  0  0  0
  6  7  4  0  0  0  0
  2  7  4  0  0  0  0
  7  8  1  0  0  0  0
  8  9  4  0  0  0  0
  9 10  4  0  0  0  0
 10 11  1  0  0  0  0
 11 12  1  0  0  0  0
 11 13  1  0  0  0  0
 10 14  4  0  0  0  0
 14 15  4  0  0  0  0
 15 16  4  0  0  0  0
 16 17  1  0  0  0  0
 17 18  4  0  0  0  0
 18 19  4  0  0  0  0
 19 20  1  0  0  0  0
 20 21  1  0  0  0  0
 20 22  1  0  0  0  0
 20 23  1  0  0  0  0
 19 24  4  0  0  0  0
 24 25  1  0  0  0  0
 24 26  4  0  0  0  0
 17 26  4  0  0  0  0
 16 27  4  0  0  0  0
 27 28  1  0  0  0  0
 27 29  4  0  0  0  0
 29 30  4  0  0  0  0
 14 30  4  0  0  0  0
 30 31  4  0  0  0  0
  8 31  4  0  0  0  0
 31 32  2  0  0  0  0
M  END
> <IC50(uM)>
6.050000000000001E-4

> <Outcome>
1.0

> <BindingDB ID>
1121369; 1121391

> <BindingDB MonomerID>
530435

> <BindingDB Ligand Name>
7-Fluoro-6-(5-(2-hydroxypropan-2-yl)-1-methyl-1H-1,2,4-triazol-3-yl)-4-isopropyl- 2-(o-tolyl)isoquinolin-1(2H)-one.::WO2022070068, Example 29::WO2022070068, Example 7

> <Curation/DataSource>
Curated from the literature by BindingDB

> <Article DOI>
?

> <PMID>
WO2022070068

> <Patent Number>
?

> <Authors>
Lindsey, D; Scott, K; Zhuming, Z

> <Link to Ligand in BindingDB>
http://www.bindingdb.org/bind/chemsearch/marvin/MolStructure.jsp?monomerid=530435

> <Link to Ligand-Target Pair in BindingDB>
http://www.bindingdb.org/jsp/dbsearch/PrimarySearch_ki.jsp?energyterm=kJ/mole&tag=r21&monomerid=530435&enzyme=Dihydroorotate+dehydrogenase&column=ki&startPg=0&Increment=50&submit=Search

> <PubChem CID>
?

> <PubChem SID>
?

$$$$

  Mrv2115 07222212352D          

 27 29  0  0  0  0            999 V2000
    0.7145   -3.7125    0.0000 C   0  0  0  0  0  0  0  0  0  0  0  0
    0.7145   -2.8875    0.0000 N   0  0  0  0  0  0  0  0  0  0  0  0
    1.4289   -2.4750    0.0000 C   0  0  0  0  0  0  0  0  0  0  0  0
    2.1434   -2.8875    0.0000 O   0  0  0  0  0  0  0  0  0  0  0  0
    1.4289   -1.6500    0.0000 C   0  0  0  0  0  0  0  0  0  0  0  0
    0.7145   -1.2375    0.0000 C   0  0  0  0  0  0  0  0  0  0  0  0
    0.7145   -0.4125    0.0000 C   0  0  0  0  0  0  0  0  0  0  0  0
    1.4289    0.0000    0.0000 C   0  0  0  0  0  0  0  0  0  0  0  0
    2.1434   -0.4125    0.0000 C   0  0  0  0  0  0  0  0  0  0  0  0
    2.8579    0.0000    0.0000 C   0  0  0  0  0  0  0  0  0  0  0  0
    3.5724   -0.4125    0.0000 C   0  0  0  0  0  0  0  0  0  0  0  0
    4.2868   -0.0000    0.0000 C   0  0  0  0  0  0  0  0  0  0  0  0
    4.2868    0.8250    0.0000 C   0  0  0  0  0  0  0  0  0  0  0  0
    5.0013    1.2375    0.0000 C   0  0  0  0  0  0  0  0  0  0  0  0
    5.0013    2.0625    0.0000 C   0  0  0  0  0  0  0  0  0  0  0  0
    4.2868    2.4750    0.0000 C   0  0  0  0  0  0  0  0  0  0  0  0
    4.2868    3.3000    0.0000 O   0  0  0  0  0  0  0  0  0  0  0  0
    3.5724    2.0625    0.0000 O   0  0  0  0  0  0  0  0  0  0  0  0
    5.7158    2.4750    0.0000 N   0  0  0  0  0  0  0  0  0  0  0  0
    6.4302    2.0625    0.0000 C   0  0  0  0  0  0  0  0  0  0  0  0
    7.1447    2.4750    0.0000 O   0  0  0  0  0  0  0  0  0  0  0  0
    6.4302    1.2375    0.0000 N   0  0  0  0  0  0  0  0  0  0  0  0
    5.7158    0.8250    0.0000 C   0  0  0  0  0  0  0  0  0  0  0  0
    5.7158   -0.0000    0.0000 O   0  0  0  0  0  0  0  0  0  0  0  0
    3.5724   -1.2375    0.0000 C   0  0  0  0  0  0  0  0  0  0  0  0
    2.8579   -1.6500    0.0000 C   0  0  0  0  0  0  0  0  0  0  0  0
    2.1434   -1.2375    0.0000 C   0  0  0  0  0  0  0  0  0  0  0  0
  1  2  1  0  0  0  0
  2  3  1  0  0  0  0
  3  4  2  0  0  0  0
  3  5  1  0  0  0  0
  5  6  4  0  0  0  0
  6  7  4  0  0  0  0
  7  8  4  0  0  0  0
  8  9  4  0  0  0  0
  9 10  4  0  0  0  0
 10 11  4  0  0  0  0
 11 12  1  0  0  0  0
 12 13  1  0  0  0  0
 13 14  1  0  0  0  0
 14 15  4  0  0  0  0
 15 16  1  0  0  0  0
 16 17  2  0  0  0  0
 16 18  1  0  0  0  0
 15 19  4  0  0  0  0
 19 20  4  0  0  0  0
 20 21  2  0  0  0  0
 20 22  4  0  0  0  0
 22 23  4  0  0  0  0
 14 23  4  0  0  0  0
 23 24  2  0  0  0  0
 11 25  4  0  0  0  0
 25 26  4  0  0  0  0
 26 27  4  0  0  0  0
  5 27  4  0  0  0  0
  9 27  4  0  0  0  0
M  STY  2   1 DAT   2 DAT
M  SAL   1  1  19
M  SDT   1 MRV_IMPLICIT_H                                        
M  SDD   1     0.6482   -0.4125    DR    ALL  0       0  
M  SED   1 IMPL_H1
M  SAL   2  1  22
M  SDT   2 MRV_IMPLICIT_H                                        
M  SDD   2     0.5304   -0.4125    DR    ALL  0       0  
M  SED   2 IMPL_H1
M  END
> <IC50(uM)>
0.297

> <Outcome>
1.0

> <BindingDB ID>
50555391

> <BindingDB MonomerID>
50211707

> <BindingDB Ligand Name>
CHEMBL3947426

> <Curation/DataSource>
ChEMBL

> <Article DOI>
10.1016/j.bmc.2017.01.009

> <PMID>
28118956

> <Patent Number>
?

> <Authors>
Inaoka, DK; Iida, M; Hashimoto, S; Tabuchi, T; Kuranaga, T; Balogun, EO; Honma, T; Tanaka, A; Harada, S; Nara, T; Kita, K; Inoue, M

> <Link to Ligand in BindingDB>
http://www.bindingdb.org/bind/chemsearch/marvin/MolStructure.jsp?monomerid=50211707

> <Link to Ligand-Target Pair in BindingDB>
http://www.bindingdb.org/jsp/dbsearch/PrimarySearch_ki.jsp?energyterm=kJ/mole&tag=r21&monomerid=50211707&enzyme=Dihydroorotate+dehydrogenase&column=ki&startPg=0&Increment=50&submit=Search

> <PubChem CID>
134146963

> <PubChem SID>
375983050

$$$$

  Mrv2115 07222212352D          

 31 34  0  0  0  0            999 V2000
   -3.1034    2.1599    0.0000 C   0  0  0  0  0  0  0  0  0  0  0  0
   -2.6909    1.4455    0.0000 C   0  0  0  0  0  0  0  0  0  0  0  0
   -3.1034    0.7310    0.0000 O   0  0  0  0  0  0  0  0  0  0  0  0
   -2.6909    0.0165    0.0000 C   0  0  0  0  0  0  0  0  0  0  0  0
   -1.8659    0.0165    0.0000 C   0  0  0  0  0  0  0  0  0  0  0  0
   -1.4534   -0.6979    0.0000 C   0  0  0  0  0  0  0  0  0  0  0  0
   -0.6284   -0.6979    0.0000 N   0  0  0  0  0  0  0  0  0  0  0  0
   -0.1435   -1.3654    0.0000 N   0  0  0  0  0  0  0  0  0  0  0  0
    0.6411   -1.1104    0.0000 C   0  0  0  0  0  0  0  0  0  0  0  0
    0.6411   -0.2854    0.0000 N   0  0  0  0  0  0  0  0  0  0  0  0
   -0.1435   -0.0305    0.0000 C   0  0  0  0  0  0  0  0  0  0  0  0
   -0.3984    0.7541    0.0000 O   0  0  0  0  0  0  0  0  0  0  0  0
    1.3556    0.1271    0.0000 C   0  0  0  0  0  0  0  0  0  0  0  0
    2.0701   -0.2854    0.0000 C   0  0  0  0  0  0  0  0  0  0  0  0
    2.0701   -1.1104    0.0000 C   0  0  0  0  0  0  0  0  0  0  0  0
    1.3556   -1.5229    0.0000 C   0  0  0  0  0  0  0  0  0  0  0  0
   -1.8659   -1.4124    0.0000 C   0  0  0  0  0  0  0  0  0  0  0  0
   -1.4534   -2.1269    0.0000 F   0  0  0  0  0  0  0  0  0  0  0  0
   -2.6909   -1.4124    0.0000 C   0  0  0  0  0  0  0  0  0  0  0  0
   -3.1034   -0.6979    0.0000 C   0  0  0  0  0  0  0  0  0  0  0  0
   -3.9284   -0.6979    0.0000 C   0  0  0  0  0  0  0  0  0  0  0  0
   -4.3409    0.0165    0.0000 O   0  0  0  0  0  0  0  0  0  0  0  0
   -4.3409   -1.4124    0.0000 N   0  0  0  0  0  0  0  0  0  0  0  0
   -5.1659   -1.4124    0.0000 C   0  0  0  0  0  0  0  0  0  0  0  0
   -5.7493   -1.9958    0.0000 C   0  0  0  0  0  0  0  0  0  0  0  0
   -6.3327   -1.4124    0.0000 N   0  0  0  0  0  0  0  0  0  0  0  0
   -5.7493   -0.8291    0.0000 C   0  0  0  0  0  0  0  0  0  0  0  0
   -1.8659    1.4455    0.0000 C   0  0  0  0  0  0  0  0  0  0  0  0
   -1.8659    0.6205    0.0000 F   0  0  0  0  0  0  0  0  0  0  0  0
   -1.8659    2.2705    0.0000 F   0  0  0  0  0  0  0  0  0  0  0  0
   -1.0409    1.4455    0.0000 F   0  0  0  0  0  0  0  0  0  0  0  0
  1  2  1  0  0  0  0
  2  3  1  0  0  0  0
  3  4  1  0  0  0  0
  4  5  4  0  0  0  0
  5  6  4  0  0  0  0
  6  7  1  0  0  0  0
  7  8  4  0  0  0  0
  8  9  4  0  0  0  0
  9 10  4  0  0  0  0
 10 11  4  0  0  0  0
  7 11  4  0  0  0  0
 11 12  2  0  0  0  0
 10 13  1  0  0  0  0
 13 14  1  0  0  0  0
 14 15  1  0  0  0  0
 15 16  1  0  0  0  0
  9 16  1  0  0  0  0
  6 17  4  0  0  0  0
 17 18  1  0  0  0  0
 17 19  4  0  0  0  0
 19 20  4  0  0  0  0
  4 20  4  0  0  0  0
 20 21  1  0  0  0  0
 21 22  2  0  0  0  0
 21 23  1  0  0  0  0
 23 24  1  0  0  0  0
 24 25  1  0  0  0  0
 25 26  1  0  0  0  0
 26 27  1  0  0  0  0
 24 27  1  0  0  0  0
  2 28  1  0  0  0  0
 28 29  1  0  0  0  0
 28 30  1  0  0  0  0
 28 31  1  0  0  0  0
M  END
> <IC50(uM)>
8.5

> <Outcome>
0.0

> <BindingDB ID>
1020433

> <BindingDB MonomerID>
490384

> <BindingDB Ligand Name>
N-(azetidin-3-yl)-5-fluoro-4-(3-oxo-5,6,7,8-tetrahydro[1,2,4]triazolo[4,3-a]pyridin-2(3H)-yl)-2-{[(2S)-1,1,1-trifluoropropan-2-yl]oxy}benzamide::US10968216, Example 52

> <Curation/DataSource>
US Patent

> <Article DOI>
?

> <PMID>
?

> <Patent Number>
US10968216

> <Authors>
Gradl, SN; Nguyen, D; Eis, K; Gunther, J; Stellfeld, T; Janzer, A; Christian, S; Mueller, T; Sheikh, SE; Zhou, HJ; Zhao, C; Sykes, DB; Ferrara, SJ; Liu, K; Herbert, SA; Merz, C; Niehues, M; Nising, CF; Schafer, M; Zimmermann, K; Knablein, J; Thede, K; Faupel, T

> <Link to Ligand in BindingDB>
http://www.bindingdb.org/bind/chemsearch/marvin/MolStructure.jsp?monomerid=490384

> <Link to Ligand-Target Pair in BindingDB>
http://www.bindingdb.org/jsp/dbsearch/PrimarySearch_ki.jsp?energyterm=kJ/mole&tag=r21&monomerid=490384&enzyme=Dihydroorotate+dehydrogenase&column=ki&startPg=0&Increment=50&submit=Search

> <PubChem CID>
134474508

> <PubChem SID>
447117111

$$$$

  Mrv2115 07222212352D          

 36 39  0  0  0  0            999 V2000
   -3.1034    2.1599    0.0000 C   0  0  0  0  0  0  0  0  0  0  0  0
   -2.6909    1.4455    0.0000 C   0  0  0  0  0  0  0  0  0  0  0  0
   -3.1034    0.7310    0.0000 O   0  0  0  0  0  0  0  0  0  0  0  0
   -2.6909    0.0165    0.0000 C   0  0  0  0  0  0  0  0  0  0  0  0
   -1.8659    0.0165    0.0000 C   0  0  0  0  0  0  0  0  0  0  0  0
   -1.4534   -0.6979    0.0000 C   0  0  0  0  0  0  0  0  0  0  0  0
   -0.6284   -0.6979    0.0000 N   0  0  0  0  0  0  0  0  0  0  0  0
   -0.1435   -1.3654    0.0000 N   0  0  0  0  0  0  0  0  0  0  0  0
    0.6411   -1.1104    0.0000 C   0  0  0  0  0  0  0  0  0  0  0  0
    0.6411   -0.2854    0.0000 N   0  0  0  0  0  0  0  0  0  0  0  0
   -0.1435   -0.0305    0.0000 C   0  0  0  0  0  0  0  0  0  0  0  0
   -0.3984    0.7541    0.0000 O   0  0  0  0  0  0  0  0  0  0  0  0
    1.3556    0.1271    0.0000 C   0  0  0  0  0  0  0  0  0  0  0  0
    2.0701   -0.2854    0.0000 C   0  0  0  0  0  0  0  0  0  0  0  0
    2.0701   -1.1104    0.0000 C   0  0  0  0  0  0  0  0  0  0  0  0
    1.3556   -1.5229    0.0000 C   0  0  0  0  0  0  0  0  0  0  0  0
   -1.8659   -1.4124    0.0000 C   0  0  0  0  0  0  0  0  0  0  0  0
   -1.4534   -2.1269    0.0000 F   0  0  0  0  0  0  0  0  0  0  0  0
   -2.6909   -1.4124    0.0000 C   0  0  0  0  0  0  0  0  0  0  0  0
   -3.1034   -0.6979    0.0000 C   0  0  0  0  0  0  0  0  0  0  0  0
   -3.9284   -0.6979    0.0000 C   0  0  0  0  0  0  0  0  0  0  0  0
   -4.3409    0.0165    0.0000 O   0  0  0  0  0  0  0  0  0  0  0  0
   -4.3409   -1.4124    0.0000 N   0  0  0  0  0  0  0  0  0  0  0  0
   -5.1659   -1.4124    0.0000 C   0  0  0  0  0  0  0  0  0  0  0  0
   -5.5784   -2.1269    0.0000 C   0  0  0  0  0  0  0  0  0  0  0  0
   -5.1659   -2.8414    0.0000 F   0  0  0  0  0  0  0  0  0  0  0  0
   -6.4034   -2.1269    0.0000 C   0  0  0  0  0  0  0  0  0  0  0  0
   -6.8159   -1.4124    0.0000 C   0  0  0  0  0  0  0  0  0  0  0  0
   -7.6409   -1.4124    0.0000 O   0  0  0  0  0  0  0  0  0  0  0  0
   -6.4034   -0.6979    0.0000 C   0  0  0  0  0  0  0  0  0  0  0  0
   -5.5784   -0.6979    0.0000 C   0  0  0  0  0  0  0  0  0  0  0  0
   -5.1659    0.0165    0.0000 F   0  0  0  0  0  0  0  0  0  0  0  0
   -1.8659    1.4455    0.0000 C   0  0  0  0  0  0  0  0  0  0  0  0
   -1.8659    0.6205    0.0000 F   0  0  0  0  0  0  0  0  0  0  0  0
   -1.8659    2.2705    0.0000 F   0  0  0  0  0  0  0  0  0  0  0  0
   -1.0409    1.4455    0.0000 F   0  0  0  0  0  0  0  0  0  0  0  0
  1  2  1  0  0  0  0
  2  3  1  0  0  0  0
  3  4  1  0  0  0  0
  4  5  4  0  0  0  0
  5  6  4  0  0  0  0
  6  7  1  0  0  0  0
  7  8  4  0  0  0  0
  8  9  4  0  0  0  0
  9 10  4  0  0  0  0
 10 11  4  0  0  0  0
  7 11  4  0  0  0  0
 11 12  2  0  0  0  0
 10 13  1  0  0  0  0
 13 14  1  0  0  0  0
 14 15  1  0  0  0  0
 15 16  1  0  0  0  0
  9 16  1  0  0  0  0
  6 17  4  0  0  0  0
 17 18  1  0  0  0  0
 17 19  4  0  0  0  0
 19 20  4  0  0  0  0
  4 20  4  0  0  0  0
 20 21  1  0  0  0  0
 21 22  2  0  0  0  0
 21 23  1  0  0  0  0
 23 24  1  0  0  0  0
 24 25  4  0  0  0  0
 25 26  1  0  0  0  0
 25 27  4  0  0  0  0
 27 28  4  0  0  0  0
 28 29  1  0  0  0  0
 28 30  4  0  0  0  0
 30 31  4  0  0  0  0
 24 31  4  0  0  0  0
 31 32  1  0  0  0  0
  2 33  1  0  0  0  0
 33 34  1  0  0  0  0
 33 35  1  0  0  0  0
 33 36  1  0  0  0  0
M  END
> <IC50(uM)>
0.0033999999999999994

> <Outcome>
1.0

> <BindingDB ID>
1020696

> <BindingDB MonomerID>
490622

> <BindingDB Ligand Name>
N-(2,6-difluoro-4-hydroxyphenyl)-5-fluoro-4-(3-oxo-5,6,7,8-tetrahydro[1,2,4]triazolo[4,3-a]pyridin-2(3H)-yl)-2-{[(2S)-1,1,1-trifluoropropan-2-yl]oxy}benzamide::US10968216, Example 290

> <Curation/DataSource>
US Patent

> <Article DOI>
?

> <PMID>
?

> <Patent Number>
US10968216

> <Authors>
Gradl, SN; Nguyen, D; Eis, K; Gunther, J; Stellfeld, T; Janzer, A; Christian, S; Mueller, T; Sheikh, SE; Zhou, HJ; Zhao, C; Sykes, DB; Ferrara, SJ; Liu, K; Herbert, SA; Merz, C; Niehues, M; Nising, CF; Schafer, M; Zimmermann, K; Knablein, J; Thede, K; Faupel, T

> <Link to Ligand in BindingDB>
http://www.bindingdb.org/bind/chemsearch/marvin/MolStructure.jsp?monomerid=490622

> <Link to Ligand-Target Pair in BindingDB>
http://www.bindingdb.org/jsp/dbsearch/PrimarySearch_ki.jsp?energyterm=kJ/mole&tag=r21&monomerid=490622&enzyme=Dihydroorotate+dehydrogenase&column=ki&startPg=0&Increment=50&submit=Search

> <PubChem CID>
142335888

> <PubChem SID>
447117348

$$$$

  Mrv2115 07222212352D          

 28 31  0  0  0  0            999 V2000
    3.9934    2.4750    0.0000 O   0  0  0  0  0  0  0  0  0  0  0  0
    3.2789    2.0625    0.0000 C   0  0  0  0  0  0  0  0  0  0  0  0
    2.5645    2.4750    0.0000 O   0  0  0  0  0  0  0  0  0  0  0  0
    3.2789    1.2375    0.0000 C   0  0  0  0  0  0  0  0  0  0  0  0
    3.9934    0.8250    0.0000 C   0  0  0  0  0  0  0  0  0  0  0  0
    3.9934    0.0000    0.0000 C   0  0  0  0  0  0  0  0  0  0  0  0
    3.2789   -0.4125    0.0000 C   0  0  0  0  0  0  0  0  0  0  0  0
    2.5645    0.0000    0.0000 C   0  0  0  0  0  0  0  0  0  0  0  0
    1.7798   -0.2549    0.0000 N   0  0  0  0  0  0  0  0  0  0  0  0
    1.2949    0.4125    0.0000 C   0  0  0  0  0  0  0  0  0  0  0  0
    0.4699    0.4125    0.0000 C   0  0  0  0  0  0  0  0  0  0  0  0
    0.0574   -0.3020    0.0000 C   0  0  0  0  0  0  0  0  0  0  0  0
    0.4699   -1.0164    0.0000 F   0  0  0  0  0  0  0  0  0  0  0  0
   -0.7676   -0.3020    0.0000 C   0  0  0  0  0  0  0  0  0  0  0  0
   -1.1801   -1.0164    0.0000 F   0  0  0  0  0  0  0  0  0  0  0  0
   -1.1801    0.4125    0.0000 C   0  0  0  0  0  0  0  0  0  0  0  0
   -2.0051    0.4125    0.0000 C   0  0  0  0  0  0  0  0  0  0  0  0
   -2.4176   -0.3020    0.0000 C   0  0  0  0  0  0  0  0  0  0  0  0
   -3.2426   -0.3020    0.0000 C   0  0  0  0  0  0  0  0  0  0  0  0
   -3.6551    0.4125    0.0000 C   0  0  0  0  0  0  0  0  0  0  0  0
   -3.2426    1.1270    0.0000 C   0  0  0  0  0  0  0  0  0  0  0  0
   -2.4176    1.1270    0.0000 C   0  0  0  0  0  0  0  0  0  0  0  0
   -0.7676    1.1270    0.0000 C   0  0  0  0  0  0  0  0  0  0  0  0
   -1.1801    1.8414    0.0000 F   0  0  0  0  0  0  0  0  0  0  0  0
    0.0574    1.1270    0.0000 C   0  0  0  0  0  0  0  0  0  0  0  0
    0.4699    1.8414    0.0000 F   0  0  0  0  0  0  0  0  0  0  0  0
    1.7798    1.0799    0.0000 N   0  0  0  0  0  0  0  0  0  0  0  0
    2.5645    0.8250    0.0000 C   0  0  0  0  0  0  0  0  0  0  0  0
  1  2  2  0  0  0  0
  2  3  1  0  0  0  0
  2  4  1  0  0  0  0
  4  5  4  0  0  0  0
  5  6  4  0  0  0  0
  6  7  4  0  0  0  0
  7  8  4  0  0  0  0
  8  9  4  0  0  0  0
  9 10  4  0  0  0  0
 10 11  1  0  0  0  0
 11 12  4  0  0  0  0
 12 13  1  0  0  0  0
 12 14  4  0  0  0  0
 14 15  1  0  0  0  0
 14 16  4  0  0  0  0
 16 17  1  0  0  0  0
 17 18  4  0  0  0  0
 18 19  4  0  0  0  0
 19 20  4  0  0  0  0
 20 21  4  0  0  0  0
 21 22  4  0  0  0  0
 17 22  4  0  0  0  0
 16 23  4  0  0  0  0
 23 24  1  0  0  0  0
 23 25  4  0  0  0  0
 11 25  4  0  0  0  0
 25 26  1  0  0  0  0
 10 27  4  0  0  0  0
 27 28  4  0  0  0  0
  4 28  4  0  0  0  0
  8 28  4  0  0  0  0
M  STY  1   1 DAT
M  SAL   1  1   9
M  SDT   1 MRV_IMPLICIT_H                                        
M  SDD   1     0.5304   -0.4125    DR    ALL  0       0  
M  SED   1 IMPL_H1
M  END
> <IC50(uM)>
0.038

> <Outcome>
1.0

> <BindingDB ID>
297755

> <BindingDB MonomerID>
155411

> <BindingDB Ligand Name>
US9006454, I21

> <Curation/DataSource>
US Patent

> <Article DOI>
?

> <PMID>
?

> <Patent Number>
US9006454

> <Authors>
Thunuguntla, SS; Subramanya, H; Kunnam, SR; Sanivaru Vijay, SR; Bingi, C; Kusanur, R; Schwarz, M; Arlt, M

> <Link to Ligand in BindingDB>
http://www.bindingdb.org/bind/chemsearch/marvin/MolStructure.jsp?monomerid=155411

> <Link to Ligand-Target Pair in BindingDB>
http://www.bindingdb.org/jsp/dbsearch/PrimarySearch_ki.jsp?energyterm=kJ/mole&tag=r21&monomerid=155411&enzyme=Dihydroorotate+dehydrogenase&column=ki&startPg=0&Increment=50&submit=Search

> <PubChem CID>
58073761

> <PubChem SID>
253658348

$$$$

  Mrv2115 07222212352D          

 28 31  0  0  0  0            999 V2000
    1.4289   -2.4750    0.0000 O   0  0  0  0  0  0  0  0  0  0  0  0
    0.7145   -2.8875    0.0000 C   0  0  0  0  0  0  0  0  0  0  0  0
    0.0000   -2.4750    0.0000 C   0  0  0  0  0  0  0  0  0  0  0  0
   -0.7145   -2.8875    0.0000 C   0  0  0  0  0  0  0  0  0  0  0  0
   -1.4289   -2.4750    0.0000 C   0  0  0  0  0  0  0  0  0  0  0  0
   -1.4289   -1.6500    0.0000 C   0  0  0  0  0  0  0  0  0  0  0  0
   -0.7145   -1.2375    0.0000 C   0  0  0  0  0  0  0  0  0  0  0  0
    0.0000   -1.6500    0.0000 C   0  0  0  0  0  0  0  0  0  0  0  0
    0.7145   -3.7125    0.0000 C   0  0  0  0  0  0  0  0  0  0  0  0
    1.3819   -4.1974    0.0000 C   0  0  0  0  0  0  0  0  0  0  0  0
    1.1270   -4.9820    0.0000 N   0  0  0  0  0  0  0  0  0  0  0  0
    1.6119   -5.6495    0.0000 C   0  0  0  0  0  0  0  0  0  0  0  0
    2.4324   -5.5632    0.0000 C   0  0  0  0  0  0  0  0  0  0  0  0
    2.9173   -6.2307    0.0000 C   0  0  0  0  0  0  0  0  0  0  0  0
    3.7378   -6.1445    0.0000 F   0  0  0  0  0  0  0  0  0  0  0  0
    2.5817   -6.9844    0.0000 C   0  0  0  0  0  0  0  0  0  0  0  0
    3.0667   -7.6518    0.0000 C   0  0  0  0  0  0  0  0  0  0  0  0
    3.8871   -7.5656    0.0000 C   0  0  0  0  0  0  0  0  0  0  0  0
    4.3721   -8.2330    0.0000 C   0  0  0  0  0  0  0  0  0  0  0  0
    4.0365   -8.9867    0.0000 C   0  0  0  0  0  0  0  0  0  0  0  0
    3.2160   -9.0729    0.0000 C   0  0  0  0  0  0  0  0  0  0  0  0
    2.7311   -8.4055    0.0000 C   0  0  0  0  0  0  0  0  0  0  0  0
    1.9106   -8.4917    0.0000 F   0  0  0  0  0  0  0  0  0  0  0  0
    1.7613   -7.0706    0.0000 C   0  0  0  0  0  0  0  0  0  0  0  0
    1.4257   -7.8243    0.0000 F   0  0  0  0  0  0  0  0  0  0  0  0
    1.2763   -6.4032    0.0000 C   0  0  0  0  0  0  0  0  0  0  0  0
    0.3020   -4.9820    0.0000 N   0  0  0  0  0  0  0  0  0  0  0  0
    0.0470   -4.1974    0.0000 N   0  0  0  0  0  0  0  0  0  0  0  0
  1  2  2  0  0  0  0
  2  3  1  0  0  0  0
  3  4  4  0  0  0  0
  4  5  4  0  0  0  0
  5  6  4  0  0  0  0
  6  7  4  0  0  0  0
  7  8  4  0  0  0  0
  3  8  4  0  0  0  0
  2  9  1  0  0  0  0
  9 10  4  0  0  0  0
 10 11  4  0  0  0  0
 11 12  1  0  0  0  0
 12 13  4  0  0  0  0
 13 14  4  0  0  0  0
 14 15  1  0  0  0  0
 14 16  4  0  0  0  0
 16 17  1  0  0  0  0
 17 18  4  0  0  0  0
 18 19  4  0  0  0  0
 19 20  4  0  0  0  0
 20 21  4  0  0  0  0
 21 22  4  0  0  0  0
 17 22  4  0  0  0  0
 22 23  1  0  0  0  0
 16 24  4  0  0  0  0
 24 25  1  0  0  0  0
 24 26  4  0  0  0  0
 12 26  4  0  0  0  0
 11 27  4  0  0  0  0
 27 28  4  0  0  0  0
  9 28  4  0  0  0  0
M  END
> <IC50(uM)>
1.0

> <Outcome>
1.0

> <BindingDB ID>
51338217

> <BindingDB MonomerID>
50541691

> <BindingDB Ligand Name>
CHEMBL4644261

> <Curation/DataSource>
ChEMBL

> <Article DOI>
10.1021/acs.jmedchem.0c00512

> <PMID>
32496056

> <Patent Number>
?

> <Authors>
Zuo, Z; Liu, X; Qian, X; Zeng, T; Sang, N; Liu, H; Zhou, Y; Tao, L; Zhou, X; Su, N; Yu, Y; Chen, Q; Luo, Y; Zhao, Y

> <Link to Ligand in BindingDB>
http://www.bindingdb.org/bind/chemsearch/marvin/MolStructure.jsp?monomerid=50541691

> <Link to Ligand-Target Pair in BindingDB>
http://www.bindingdb.org/jsp/dbsearch/PrimarySearch_ki.jsp?energyterm=kJ/mole&tag=r21&monomerid=50541691&enzyme=Dihydroorotate+dehydrogenase&column=ki&startPg=0&Increment=50&submit=Search

> <PubChem CID>
156017512

> <PubChem SID>
442143254

$$$$

  Mrv2115 07222212352D          

 36 39  0  0  0  0            999 V2000
   -3.1034    3.5889    0.0000 C   0  0  0  0  0  0  0  0  0  0  0  0
   -2.6909    2.8744    0.0000 O   0  0  0  0  0  0  0  0  0  0  0  0
   -3.1034    2.1599    0.0000 C   0  0  0  0  0  0  0  0  0  0  0  0
   -3.9284    2.1599    0.0000 C   0  0  0  0  0  0  0  0  0  0  0  0
   -4.3409    1.4455    0.0000 C   0  0  0  0  0  0  0  0  0  0  0  0
   -5.1659    1.4455    0.0000 C   0  0  0  0  0  0  0  0  0  0  0  0
   -3.9284    0.7310    0.0000 C   0  0  0  0  0  0  0  0  0  0  0  0
   -4.3409    0.0165    0.0000 N   0  0  0  0  0  0  0  0  0  0  0  0
   -3.9284   -0.6979    0.0000 C   0  0  0  0  0  0  0  0  0  0  0  0
   -4.3409   -1.4124    0.0000 O   0  0  0  0  0  0  0  0  0  0  0  0
   -3.1034   -0.6979    0.0000 C   0  0  0  0  0  0  0  0  0  0  0  0
   -2.6909    0.0165    0.0000 C   0  0  0  0  0  0  0  0  0  0  0  0
   -1.8659    0.0165    0.0000 C   0  0  0  0  0  0  0  0  0  0  0  0
   -1.4534    0.7310    0.0000 Cl  0  0  0  0  0  0  0  0  0  0  0  0
   -1.4534   -0.6979    0.0000 C   0  0  0  0  0  0  0  0  0  0  0  0
   -0.6284   -0.6979    0.0000 N   0  0  0  0  0  0  0  0  0  0  0  0
   -0.1435   -1.3654    0.0000 N   0  0  0  0  0  0  0  0  0  0  0  0
    0.6411   -1.1104    0.0000 C   0  0  0  0  0  0  0  0  0  0  0  0
    0.6411   -0.2854    0.0000 N   0  0  0  0  0  0  0  0  0  0  0  0
   -0.1435   -0.0305    0.0000 C   0  0  0  0  0  0  0  0  0  0  0  0
   -0.3984    0.7541    0.0000 O   0  0  0  0  0  0  0  0  0  0  0  0
    1.3556    0.1271    0.0000 C   0  0  0  0  0  0  0  0  0  0  0  0
    2.0701   -0.2854    0.0000 C   0  0  0  0  0  0  0  0  0  0  0  0
    2.0701   -1.1104    0.0000 C   0  0  0  0  0  0  0  0  0  0  0  0
    1.3556   -1.5229    0.0000 C   0  0  0  0  0  0  0  0  0  0  0  0
   -1.8659   -1.4124    0.0000 C   0  0  0  0  0  0  0  0  0  0  0  0
   -2.6909   -1.4124    0.0000 C   0  0  0  0  0  0  0  0  0  0  0  0
   -3.1034   -2.1269    0.0000 O   0  0  0  0  0  0  0  0  0  0  0  0
   -2.6909   -2.8414    0.0000 C   0  0  0  0  0  0  0  0  0  0  0  0
   -1.8659   -2.8414    0.0000 C   0  0  0  0  0  0  0  0  0  0  0  0
   -3.1034   -3.5558    0.0000 C   0  0  0  0  0  0  0  0  0  0  0  0
   -3.8179   -3.1433    0.0000 F   0  0  0  0  0  0  0  0  0  0  0  0
   -2.3890   -3.9683    0.0000 F   0  0  0  0  0  0  0  0  0  0  0  0
   -3.5159   -4.2703    0.0000 F   0  0  0  0  0  0  0  0  0  0  0  0
   -3.1034    0.7310    0.0000 C   0  0  0  0  0  0  0  0  0  0  0  0
   -2.6909    1.4455    0.0000 N   0  0  0  0  0  0  0  0  0  0  0  0
  1  2  1  0  0  0  0
  2  3  1  0  0  0  0
  3  4  4  0  0  0  0
  4  5  4  0  0  0  0
  5  6  1  0  0  0  0
  5  7  4  0  0  0  0
  7  8  1  0  0  0  0
  8  9  1  0  0  0  0
  9 10  2  0  0  0  0
  9 11  1  0  0  0  0
 11 12  4  0  0  0  0
 12 13  4  0  0  0  0
 13 14  1  0  0  0  0
 13 15  4  0  0  0  0
 15 16  1  0  0  0  0
 16 17  4  0  0  0  0
 17 18  4  0  0  0  0
 18 19  4  0  0  0  0
 19 20  4  0  0  0  0
 16 20  4  0  0  0  0
 20 21  2  0  0  0  0
 19 22  1  0  0  0  0
 22 23  1  0  0  0  0
 23 24  1  0  0  0  0
 24 25  1  0  0  0  0
 18 25  1  0  0  0  0
 15 26  4  0  0  0  0
 26 27  4  0  0  0  0
 11 27  4  0  0  0  0
 27 28  1  0  0  0  0
 28 29  1  0  0  0  0
 29 30  1  0  0  0  0
 29 31  1  0  0  0  0
 31 32  1  0  0  0  0
 31 33  1  0  0  0  0
 31 34  1  0  0  0  0
  7 35  4  0  0  0  0
 35 36  4  0  0  0  0
  3 36  4  0  0  0  0
M  END
> <IC50(uM)>
0.7

> <Outcome>
1.0

> <BindingDB ID>
1020692

> <BindingDB MonomerID>
490618

> <BindingDB Ligand Name>
5-chloro-N-(6-methoxy-4-methylpyridin-3-yl)-4-(3-oxo-5,6,7,8-tetrahydro[1,2,4]triazolo[4,3-a]-pyridin-2(3H)-yl)-2-{[(2S)-1,1,1-trifluoropropan-2-yl]oxy}benzamide::US10968216, Example 286

> <Curation/DataSource>
US Patent

> <Article DOI>
?

> <PMID>
?

> <Patent Number>
US10968216

> <Authors>
Gradl, SN; Nguyen, D; Eis, K; Gunther, J; Stellfeld, T; Janzer, A; Christian, S; Mueller, T; Sheikh, SE; Zhou, HJ; Zhao, C; Sykes, DB; Ferrara, SJ; Liu, K; Herbert, SA; Merz, C; Niehues, M; Nising, CF; Schafer, M; Zimmermann, K; Knablein, J; Thede, K; Faupel, T

> <Link to Ligand in BindingDB>
http://www.bindingdb.org/bind/chemsearch/marvin/MolStructure.jsp?monomerid=490618

> <Link to Ligand-Target Pair in BindingDB>
http://www.bindingdb.org/jsp/dbsearch/PrimarySearch_ki.jsp?energyterm=kJ/mole&tag=r21&monomerid=490618&enzyme=Dihydroorotate+dehydrogenase&column=ki&startPg=0&Increment=50&submit=Search

> <PubChem CID>
134474450

> <PubChem SID>
447117344

$$$$

  Mrv2115 07222212352D          

 29 31  0  0  0  0            999 V2000
   -7.1447    1.6500    0.0000 C   0  0  0  0  0  0  0  0  0  0  0  0
   -6.4302    2.0625    0.0000 O   0  0  0  0  0  0  0  0  0  0  0  0
   -5.7158    1.6500    0.0000 C   0  0  0  0  0  0  0  0  0  0  0  0
   -5.7158    0.8250    0.0000 O   0  0  0  0  0  0  0  0  0  0  0  0
   -5.0013    2.0625    0.0000 C   0  0  0  0  0  0  0  0  0  0  0  0
   -5.0013    2.8875    0.0000 C   0  0  0  0  0  0  0  0  0  0  0  0
   -4.2868    3.3000    0.0000 C   0  0  0  0  0  0  0  0  0  0  0  0
   -3.5724    2.8875    0.0000 C   0  0  0  0  0  0  0  0  0  0  0  0
   -3.5724    2.0625    0.0000 C   0  0  0  0  0  0  0  0  0  0  0  0
   -2.8579    1.6500    0.0000 C   0  0  0  0  0  0  0  0  0  0  0  0
   -2.8579    0.8250    0.0000 C   0  0  0  0  0  0  0  0  0  0  0  0
   -2.1434    0.4125    0.0000 C   0  0  0  0  0  0  0  0  0  0  0  0
   -1.4289    0.8250    0.0000 C   0  0  0  0  0  0  0  0  0  0  0  0
   -0.7145    0.4125    0.0000 C   0  0  0  0  0  0  0  0  0  0  0  0
    0.0000    0.8250    0.0000 C   0  0  0  0  0  0  0  0  0  0  0  0
    0.7145    0.4125    0.0000 C   0  0  0  0  0  0  0  0  0  0  0  0
    1.4289    0.8250    0.0000 C   0  0  0  0  0  0  0  0  0  0  0  0
    1.4289    1.6500    0.0000 C   0  0  0  0  0  0  0  0  0  0  0  0
    2.1434    2.0625    0.0000 O   0  0  0  0  0  0  0  0  0  0  0  0
    0.7145    2.0625    0.0000 O   0  0  0  0  0  0  0  0  0  0  0  0
    2.1434    0.4125    0.0000 N   0  0  0  0  0  0  0  0  0  0  0  0
    2.1434   -0.4125    0.0000 C   0  0  0  0  0  0  0  0  0  0  0  0
    2.8579   -0.8250    0.0000 O   0  0  0  0  0  0  0  0  0  0  0  0
    1.4289   -0.8250    0.0000 N   0  0  0  0  0  0  0  0  0  0  0  0
    0.7145   -0.4125    0.0000 C   0  0  0  0  0  0  0  0  0  0  0  0
    0.0000   -0.8250    0.0000 O   0  0  0  0  0  0  0  0  0  0  0  0
   -3.5724    0.4125    0.0000 C   0  0  0  0  0  0  0  0  0  0  0  0
   -4.2868    0.8250    0.0000 C   0  0  0  0  0  0  0  0  0  0  0  0
   -4.2868    1.6500    0.0000 C   0  0  0  0  0  0  0  0  0  0  0  0
  1  2  1  0  0  0  0
  2  3  1  0  0  0  0
  3  4  2  0  0  0  0
  3  5  1  0  0  0  0
  5  6  4  0  0  0  0
  6  7  4  0  0  0  0
  7  8  4  0  0  0  0
  8  9  4  0  0  0  0
  9 10  4  0  0  0  0
 10 11  4  0  0  0  0
 11 12  1  0  0  0  0
 12 13  1  0  0  0  0
 13 14  1  0  0  0  0
 14 15  1  0  0  0  0
 15 16  1  0  0  0  0
 16 17  4  0  0  0  0
 17 18  1  0  0  0  0
 18 19  2  0  0  0  0
 18 20  1  0  0  0  0
 17 21  4  0  0  0  0
 21 22  4  0  0  0  0
 22 23  2  0  0  0  0
 22 24  4  0  0  0  0
 24 25  4  0  0  0  0
 16 25  4  0  0  0  0
 25 26  2  0  0  0  0
 11 27  4  0  0  0  0
 27 28  4  0  0  0  0
 28 29  4  0  0  0  0
  5 29  4  0  0  0  0
  9 29  4  0  0  0  0
M  STY  2   1 DAT   2 DAT
M  SAL   1  1  21
M  SDT   1 MRV_IMPLICIT_H                                        
M  SDD   1     0.5304   -0.4125    DR    ALL  0       0  
M  SED   1 IMPL_H1
M  SAL   2  1  24
M  SDT   2 MRV_IMPLICIT_H                                        
M  SDD   2     0.6482   -0.4125    DR    ALL  0       0  
M  SED   2 IMPL_H1
M  END
> <IC50(uM)>
0.024

> <Outcome>
1.0

> <BindingDB ID>
50555330

> <BindingDB MonomerID>
50211959

> <BindingDB Ligand Name>
CHEMBL3955099

> <Curation/DataSource>
ChEMBL

> <Article DOI>
10.1016/j.bmc.2017.01.009

> <PMID>
28118956

> <Patent Number>
?

> <Authors>
Inaoka, DK; Iida, M; Hashimoto, S; Tabuchi, T; Kuranaga, T; Balogun, EO; Honma, T; Tanaka, A; Harada, S; Nara, T; Kita, K; Inoue, M

> <Link to Ligand in BindingDB>
http://www.bindingdb.org/bind/chemsearch/marvin/MolStructure.jsp?monomerid=50211959

> <Link to Ligand-Target Pair in BindingDB>
http://www.bindingdb.org/jsp/dbsearch/PrimarySearch_ki.jsp?energyterm=kJ/mole&tag=r21&monomerid=50211959&enzyme=Dihydroorotate+dehydrogenase&column=ki&startPg=0&Increment=50&submit=Search

> <PubChem CID>
134143841

> <PubChem SID>
375983080

$$$$

  Mrv2115 07222212352D          

 34 38  0  0  0  0            999 V2000
    4.0668    2.3479    0.0000 C   0  0  0  0  0  0  0  0  0  0  0  0
    3.3523    1.9354    0.0000 C   0  0  0  0  0  0  0  0  0  0  0  0
    3.3523    1.1104    0.0000 C   0  0  0  0  0  0  0  0  0  0  0  0
    2.6378    0.6979    0.0000 C   0  0  0  0  0  0  0  0  0  0  0  0
    2.6378   -0.1271    0.0000 C   0  0  0  0  0  0  0  0  0  0  0  0
    1.9233   -0.5396    0.0000 O   0  0  0  0  0  0  0  0  0  0  0  0
    3.3523   -0.5396    0.0000 O   0  0  0  0  0  0  0  0  0  0  0  0
    1.9233    1.1104    0.0000 C   0  0  0  0  0  0  0  0  0  0  0  0
    1.1387    0.8555    0.0000 N   0  0  0  0  0  0  0  0  0  0  0  0
    0.6538    1.5229    0.0000 C   0  0  0  0  0  0  0  0  0  0  0  0
   -0.1712    1.5229    0.0000 C   0  0  0  0  0  0  0  0  0  0  0  0
   -0.5837    0.8085    0.0000 C   0  0  0  0  0  0  0  0  0  0  0  0
   -1.4087    0.8085    0.0000 C   0  0  0  0  0  0  0  0  0  0  0  0
   -1.8212    1.5229    0.0000 C   0  0  0  0  0  0  0  0  0  0  0  0
   -2.6462    1.5229    0.0000 C   0  0  0  0  0  0  0  0  0  0  0  0
   -3.0587    0.8085    0.0000 C   0  0  0  0  0  0  0  0  0  0  0  0
   -3.8837    0.8085    0.0000 C   0  0  0  0  0  0  0  0  0  0  0  0
   -4.2962    1.5229    0.0000 C   0  0  0  0  0  0  0  0  0  0  0  0
   -5.1212    1.5229    0.0000 C   0  0  0  0  0  0  0  0  0  0  0  0
   -5.5337    2.2374    0.0000 O   0  0  0  0  0  0  0  0  0  0  0  0
   -5.5337    0.8085    0.0000 N   0  0  0  0  0  0  0  0  0  0  0  0
   -6.3587    0.8085    0.0000 C   0  0  0  0  0  0  0  0  0  0  0  0
   -6.7712    0.0940    0.0000 C   0  0  0  0  0  0  0  0  0  0  0  0
   -7.5962    0.0940    0.0000 C   0  0  0  0  0  0  0  0  0  0  0  0
   -8.0087    0.8085    0.0000 N   0  0  0  0  0  0  0  0  0  0  0  0
   -7.5962    1.5229    0.0000 C   0  0  0  0  0  0  0  0  0  0  0  0
   -6.7712    1.5229    0.0000 C   0  0  0  0  0  0  0  0  0  0  0  0
   -3.8837    2.2374    0.0000 C   0  0  0  0  0  0  0  0  0  0  0  0
   -3.0587    2.2374    0.0000 C   0  0  0  0  0  0  0  0  0  0  0  0
   -1.4087    2.2374    0.0000 C   0  0  0  0  0  0  0  0  0  0  0  0
   -0.5837    2.2374    0.0000 C   0  0  0  0  0  0  0  0  0  0  0  0
    1.1387    2.1904    0.0000 N   0  0  0  0  0  0  0  0  0  0  0  0
    1.9233    1.9354    0.0000 C   0  0  0  0  0  0  0  0  0  0  0  0
    2.6378    2.3479    0.0000 C   0  0  0  0  0  0  0  0  0  0  0  0
  1  2  1  0  0  0  0
  2  3  4  0  0  0  0
  3  4  4  0  0  0  0
  4  5  1  0  0  0  0
  5  6  2  0  0  0  0
  5  7  1  0  0  0  0
  4  8  4  0  0  0  0
  8  9  4  0  0  0  0
  9 10  4  0  0  0  0
 10 11  1  0  0  0  0
 11 12  4  0  0  0  0
 12 13  4  0  0  0  0
 13 14  4  0  0  0  0
 14 15  1  0  0  0  0
 15 16  4  0  0  0  0
 16 17  4  0  0  0  0
 17 18  4  0  0  0  0
 18 19  1  0  0  0  0
 19 20  2  0  0  0  0
 19 21  1  0  0  0  0
 21 22  1  0  0  0  0
 22 23  1  0  0  0  0
 23 24  1  0  0  0  0
 24 25  1  0  0  0  0
 25 26  1  0  0  0  0
 26 27  1  0  0  0  0
 22 27  1  0  0  0  0
 18 28  4  0  0  0  0
 28 29  4  0  0  0  0
 15 29  4  0  0  0  0
 14 30  4  0  0  0  0
 30 31  4  0  0  0  0
 11 31  4  0  0  0  0
 10 32  4  0  0  0  0
 32 33  4  0  0  0  0
  8 33  4  0  0  0  0
 33 34  4  0  0  0  0
  2 34  4  0  0  0  0
M  STY  1   1 DAT
M  SAL   1  1  32
M  SDT   1 MRV_IMPLICIT_H                                        
M  SDD   1     0.5304   -0.4125    DR    ALL  0       0  
M  SED   1 IMPL_H1
M  END
> <IC50(uM)>
6.637

> <Outcome>
0.0

> <BindingDB ID>
297794

> <BindingDB MonomerID>
155450

> <BindingDB Ligand Name>
US9006454, I92

> <Curation/DataSource>
US Patent

> <Article DOI>
?

> <PMID>
?

> <Patent Number>
US9006454

> <Authors>
Thunuguntla, SS; Subramanya, H; Kunnam, SR; Sanivaru Vijay, SR; Bingi, C; Kusanur, R; Schwarz, M; Arlt, M

> <Link to Ligand in BindingDB>
http://www.bindingdb.org/bind/chemsearch/marvin/MolStructure.jsp?monomerid=155450

> <Link to Ligand-Target Pair in BindingDB>
http://www.bindingdb.org/jsp/dbsearch/PrimarySearch_ki.jsp?energyterm=kJ/mole&tag=r21&monomerid=155450&enzyme=Dihydroorotate+dehydrogenase&column=ki&startPg=0&Increment=50&submit=Search

> <PubChem CID>
58073822

> <PubChem SID>
253658387

$$$$

  Mrv2115 07222212352D          

 34 36  0  0  0  0            999 V2000
    0.7145   -3.7125    0.0000 C   0  0  0  0  0  0  0  0  0  0  0  0
    1.4289   -4.1250    0.0000 C   0  0  0  0  0  0  0  0  0  0  0  0
    2.1434   -3.7125    0.0000 C   0  0  0  0  0  0  0  0  0  0  0  0
    2.8579   -4.1250    0.0000 C   0  0  0  0  0  0  0  0  0  0  0  0
    2.8579   -4.9500    0.0000 C   0  0  0  0  0  0  0  0  0  0  0  0
    3.5724   -3.7125    0.0000 O   0  0  0  0  0  0  0  0  0  0  0  0
    3.5724   -2.8875    0.0000 C   0  0  0  0  0  0  0  0  0  0  0  0
    2.8579   -2.4750    0.0000 C   0  0  0  0  0  0  0  0  0  0  0  0
    2.8579   -1.6500    0.0000 C   0  0  0  0  0  0  0  0  0  0  0  0
    2.1434   -1.2375    0.0000 N   0  0  0  0  0  0  0  0  0  0  0  0
    1.3897   -1.5731    0.0000 N   0  0  0  0  0  0  0  0  0  0  0  0
    0.8377   -0.9600    0.0000 C   0  0  0  0  0  0  0  0  0  0  0  0
    0.0172   -1.0462    0.0000 C   0  0  0  0  0  0  0  0  0  0  0  0
   -0.4677   -0.3788    0.0000 C   0  0  0  0  0  0  0  0  0  0  0  0
    1.2502   -0.2455    0.0000 N   0  0  0  0  0  0  0  0  0  0  0  0
    0.9146    0.5082    0.0000 C   0  0  0  0  0  0  0  0  0  0  0  0
    2.0572   -0.4170    0.0000 C   0  0  0  0  0  0  0  0  0  0  0  0
    2.6703    0.1350    0.0000 O   0  0  0  0  0  0  0  0  0  0  0  0
    3.5724   -1.2375    0.0000 C   0  0  0  0  0  0  0  0  0  0  0  0
    3.5724   -0.4125    0.0000 F   0  0  0  0  0  0  0  0  0  0  0  0
    4.2868   -1.6500    0.0000 C   0  0  0  0  0  0  0  0  0  0  0  0
    4.2868   -2.4750    0.0000 C   0  0  0  0  0  0  0  0  0  0  0  0
    5.0013   -2.8875    0.0000 C   0  0  0  0  0  0  0  0  0  0  0  0
    5.7158   -2.4750    0.0000 O   0  0  0  0  0  0  0  0  0  0  0  0
    5.0013   -3.7125    0.0000 N   0  0  0  0  0  0  0  0  0  0  0  0
    5.7158   -4.1250    0.0000 C   0  0  0  0  0  0  0  0  0  0  0  0
    6.4302   -3.7125    0.0000 C   0  0  0  0  0  0  0  0  0  0  0  0
    7.1447   -4.1250    0.0000 C   0  0  0  0  0  0  0  0  0  0  0  0
    7.1447   -4.9500    0.0000 C   0  0  0  0  0  0  0  0  0  0  0  0
    6.4302   -5.3625    0.0000 C   0  0  0  0  0  0  0  0  0  0  0  0
    5.7158   -4.9500    0.0000 C   0  0  0  0  0  0  0  0  0  0  0  0
    5.0013   -5.3625    0.0000 C   0  0  0  0  0  0  0  0  0  0  0  0
    4.2868   -4.9500    0.0000 C   0  0  0  0  0  0  0  0  0  0  0  0
    5.0013   -6.1875    0.0000 C   0  0  0  0  0  0  0  0  0  0  0  0
  1  2  1  0  0  0  0
  2  3  1  0  0  0  0
  3  4  1  0  0  0  0
  4  5  1  0  0  0  0
  4  6  1  0  0  0  0
  6  7  1  0  0  0  0
  7  8  4  0  0  0  0
  8  9  4  0  0  0  0
  9 10  1  0  0  0  0
 10 11  4  0  0  0  0
 11 12  4  0  0  0  0
 12 13  1  0  0  0  0
 13 14  1  0  0  0  0
 12 15  4  0  0  0  0
 15 16  1  0  0  0  0
 15 17  4  0  0  0  0
 10 17  4  0  0  0  0
 17 18  2  0  0  0  0
  9 19  4  0  0  0  0
 19 20  1  0  0  0  0
 19 21  4  0  0  0  0
 21 22  4  0  0  0  0
  7 22  4  0  0  0  0
 22 23  1  0  0  0  0
 23 24  2  0  0  0  0
 23 25  1  0  0  0  0
 25 26  1  0  0  0  0
 26 27  4  0  0  0  0
 27 28  4  0  0  0  0
 28 29  4  0  0  0  0
 29 30  4  0  0  0  0
 30 31  4  0  0  0  0
 26 31  4  0  0  0  0
 31 32  1  0  0  0  0
 32 33  1  0  0  0  0
 32 34  1  0  0  0  0
M  END
> <IC50(uM)>
0.0212

> <Outcome>
1.0

> <BindingDB ID>
1098650; 972496; 1098651; 972497

> <BindingDB MonomerID>
470378

> <BindingDB Ligand Name>
4-(3-ethyl-4-methyl-5-oxo-4,5-dihydro-1H-1,2,4-triazol-1-yl)-5-fluoro-2-[(2S)-pentan-2-yloxy]-N-[2-(propan-2-yl)phenyl]benzamide::US10815215, Example 37::US11130745, Example 37; 4-(3-ethyl-4-methyl-5-oxo-4,5-dihydro-1H-1,2,4-triazol-1-yl)-5-fluoro-2-[(2S)-pentan-2-yloxy]-N-[2-(propan-2-yl)phenyl]benzamide::US10815215, Example 37

> <Curation/DataSource>
US Patent

> <Article DOI>
?

> <PMID>
?

> <Patent Number>
US11130745; US10815215

> <Authors>
Gradl, SN; Nguyen, D; Eis, K; Gunther, J; Stellfeld, T; Janzer, A; Christian, S; Muller, T; Sheikh, SE; Sykes, DB; Ferrara, SJ; Krober, M; Merz, C; Niehues, M; Schafer, M; Zimmermann, K; Nising, CF; Gradl, SN; Nguyen, D; Eis, K; Gunther, J; Stellfeld, T; Janzer, A; Christian, S; Muller, T; Sheikh, SE; Zhou, HJ; Zhao, C; Sykes, DB; Ferrara, SJ; Liu, K; Krober, M; Merz, C; Niehues, M; Schafer, M; Zimmermann, K; Nising, CF

> <Link to Ligand in BindingDB>
http://www.bindingdb.org/bind/chemsearch/marvin/MolStructure.jsp?monomerid=470378

> <Link to Ligand-Target Pair in BindingDB>
http://www.bindingdb.org/jsp/dbsearch/PrimarySearch_ki.jsp?energyterm=kJ/mole&tag=r21&monomerid=470378&enzyme=Dihydroorotate+dehydrogenase&column=ki&startPg=0&Increment=50&submit=Search

> <PubChem CID>
134469823

> <PubChem SID>
441609555

$$$$

  Mrv2115 07222212352D          

 36 39  0  0  0  0            999 V2000
   -3.1034    2.1599    0.0000 C   0  0  0  0  0  0  0  0  0  0  0  0
   -2.6909    1.4455    0.0000 C   0  0  0  0  0  0  0  0  0  0  0  0
   -3.1034    0.7310    0.0000 O   0  0  0  0  0  0  0  0  0  0  0  0
   -2.6909    0.0165    0.0000 C   0  0  0  0  0  0  0  0  0  0  0  0
   -1.8659    0.0165    0.0000 C   0  0  0  0  0  0  0  0  0  0  0  0
   -1.4534   -0.6979    0.0000 C   0  0  0  0  0  0  0  0  0  0  0  0
   -0.6284   -0.6979    0.0000 N   0  0  0  0  0  0  0  0  0  0  0  0
   -0.1435   -1.3654    0.0000 N   0  0  0  0  0  0  0  0  0  0  0  0
    0.6411   -1.1104    0.0000 C   0  0  0  0  0  0  0  0  0  0  0  0
    0.6411   -0.2854    0.0000 N   0  0  0  0  0  0  0  0  0  0  0  0
   -0.1435   -0.0305    0.0000 C   0  0  0  0  0  0  0  0  0  0  0  0
   -0.3984    0.7541    0.0000 O   0  0  0  0  0  0  0  0  0  0  0  0
    1.3556    0.1271    0.0000 C   0  0  0  0  0  0  0  0  0  0  0  0
    2.0701   -0.2854    0.0000 C   0  0  0  0  0  0  0  0  0  0  0  0
    2.0701   -1.1104    0.0000 C   0  0  0  0  0  0  0  0  0  0  0  0
    1.3556   -1.5229    0.0000 C   0  0  0  0  0  0  0  0  0  0  0  0
   -1.8659   -1.4124    0.0000 C   0  0  0  0  0  0  0  0  0  0  0  0
   -1.4534   -2.1269    0.0000 F   0  0  0  0  0  0  0  0  0  0  0  0
   -2.6909   -1.4124    0.0000 C   0  0  0  0  0  0  0  0  0  0  0  0
   -3.1034   -0.6979    0.0000 C   0  0  0  0  0  0  0  0  0  0  0  0
   -3.9284   -0.6979    0.0000 C   0  0  0  0  0  0  0  0  0  0  0  0
   -4.3409    0.0165    0.0000 O   0  0  0  0  0  0  0  0  0  0  0  0
   -4.3409   -1.4124    0.0000 N   0  0  0  0  0  0  0  0  0  0  0  0
   -5.1659   -1.4124    0.0000 C   0  0  0  0  0  0  0  0  0  0  0  0
   -5.5784   -2.1269    0.0000 C   0  0  0  0  0  0  0  0  0  0  0  0
   -6.4034   -2.1269    0.0000 C   0  0  0  0  0  0  0  0  0  0  0  0
   -6.8159   -1.4124    0.0000 C   0  0  0  0  0  0  0  0  0  0  0  0
   -6.4034   -0.6979    0.0000 C   0  0  0  0  0  0  0  0  0  0  0  0
   -6.8159    0.0165    0.0000 F   0  0  0  0  0  0  0  0  0  0  0  0
   -5.5784   -0.6979    0.0000 C   0  0  0  0  0  0  0  0  0  0  0  0
   -5.1659    0.0165    0.0000 C   0  0  0  0  0  0  0  0  0  0  0  0
   -4.7534    0.7310    0.0000 N   0  0  0  0  0  0  0  0  0  0  0  0
   -1.8659    1.4455    0.0000 C   0  0  0  0  0  0  0  0  0  0  0  0
   -1.8659    0.6205    0.0000 F   0  0  0  0  0  0  0  0  0  0  0  0
   -1.8659    2.2705    0.0000 F   0  0  0  0  0  0  0  0  0  0  0  0
   -1.0409    1.4455    0.0000 F   0  0  0  0  0  0  0  0  0  0  0  0
  1  2  1  0  0  0  0
  2  3  1  0  0  0  0
  3  4  1  0  0  0  0
  4  5  4  0  0  0  0
  5  6  4  0  0  0  0
  6  7  1  0  0  0  0
  7  8  4  0  0  0  0
  8  9  4  0  0  0  0
  9 10  4  0  0  0  0
 10 11  4  0  0  0  0
  7 11  4  0  0  0  0
 11 12  2  0  0  0  0
 10 13  1  0  0  0  0
 13 14  1  0  0  0  0
 14 15  1  0  0  0  0
 15 16  1  0  0  0  0
  9 16  1  0  0  0  0
  6 17  4  0  0  0  0
 17 18  1  0  0  0  0
 17 19  4  0  0  0  0
 19 20  4  0  0  0  0
  4 20  4  0  0  0  0
 20 21  1  0  0  0  0
 21 22  2  0  0  0  0
 21 23  1  0  0  0  0
 23 24  1  0  0  0  0
 24 25  4  0  0  0  0
 25 26  4  0  0  0  0
 26 27  4  0  0  0  0
 27 28  4  0  0  0  0
 28 29  1  0  0  0  0
 28 30  4  0  0  0  0
 24 30  4  0  0  0  0
 30 31  1  0  0  0  0
 31 32  3  0  0  0  0
  2 33  1  0  0  0  0
 33 34  1  0  0  0  0
 33 35  1  0  0  0  0
 33 36  1  0  0  0  0
M  END
> <IC50(uM)>
0.16

> <Outcome>
1.0

> <BindingDB ID>
1020465

> <BindingDB MonomerID>
490413

> <BindingDB Ligand Name>
N-(2-cyano-3-fluorophenyl)-5-fluoro-4-(3-oxo-5,6,7,8-tetrahydro[1,2,4]triazolo[4,3-a]pyridin-2(3H)-yl)-2-{[(2S)-1,1,1-trifluoropropan-2-yl]oxy}benzamide::US10968216, Example 81

> <Curation/DataSource>
US Patent

> <Article DOI>
?

> <PMID>
?

> <Patent Number>
US10968216

> <Authors>
Gradl, SN; Nguyen, D; Eis, K; Gunther, J; Stellfeld, T; Janzer, A; Christian, S; Mueller, T; Sheikh, SE; Zhou, HJ; Zhao, C; Sykes, DB; Ferrara, SJ; Liu, K; Herbert, SA; Merz, C; Niehues, M; Nising, CF; Schafer, M; Zimmermann, K; Knablein, J; Thede, K; Faupel, T

> <Link to Ligand in BindingDB>
http://www.bindingdb.org/bind/chemsearch/marvin/MolStructure.jsp?monomerid=490413

> <Link to Ligand-Target Pair in BindingDB>
http://www.bindingdb.org/jsp/dbsearch/PrimarySearch_ki.jsp?energyterm=kJ/mole&tag=r21&monomerid=490413&enzyme=Dihydroorotate+dehydrogenase&column=ki&startPg=0&Increment=50&submit=Search

> <PubChem CID>
142335902

> <PubChem SID>
447117140

$$$$

  Mrv2115 07222212352D          

 31 35  0  0  0  0            999 V2000
    3.3523   -0.2854    0.0000 O   0  0  0  0  0  0  0  0  0  0  0  0
    3.3523   -1.1104    0.0000 C   0  0  0  0  0  0  0  0  0  0  0  0
    4.0668   -1.5229    0.0000 C   0  0  0  0  0  0  0  0  0  0  0  0
    4.7812   -1.1104    0.0000 C   0  0  0  0  0  0  0  0  0  0  0  0
    5.4957   -1.5229    0.0000 C   0  0  0  0  0  0  0  0  0  0  0  0
    5.4957   -2.3479    0.0000 C   0  0  0  0  0  0  0  0  0  0  0  0
    4.7812   -2.7604    0.0000 C   0  0  0  0  0  0  0  0  0  0  0  0
    4.0668   -2.3479    0.0000 C   0  0  0  0  0  0  0  0  0  0  0  0
    3.3523   -2.7604    0.0000 C   0  0  0  0  0  0  0  0  0  0  0  0
    3.3523   -3.5854    0.0000 O   0  0  0  0  0  0  0  0  0  0  0  0
    2.6378   -2.3479    0.0000 C   0  0  0  0  0  0  0  0  0  0  0  0
    2.6378   -1.5229    0.0000 C   0  0  0  0  0  0  0  0  0  0  0  0
    1.8532   -1.2680    0.0000 N   0  0  0  0  0  0  0  0  0  0  0  0
    1.3683   -1.9354    0.0000 N   0  0  0  0  0  0  0  0  0  0  0  0
    1.8532   -2.6029    0.0000 N   0  0  0  0  0  0  0  0  0  0  0  0
    1.5983   -3.3875    0.0000 C   0  0  0  0  0  0  0  0  0  0  0  0
    2.1503   -4.0006    0.0000 C   0  0  0  0  0  0  0  0  0  0  0  0
    1.8953   -4.7852    0.0000 C   0  0  0  0  0  0  0  0  0  0  0  0
    2.4474   -5.3983    0.0000 F   0  0  0  0  0  0  0  0  0  0  0  0
    1.0884   -4.9567    0.0000 C   0  0  0  0  0  0  0  0  0  0  0  0
    0.8334   -5.7414    0.0000 C   0  0  0  0  0  0  0  0  0  0  0  0
    1.3855   -6.3545    0.0000 C   0  0  0  0  0  0  0  0  0  0  0  0
    1.1305   -7.1391    0.0000 C   0  0  0  0  0  0  0  0  0  0  0  0
    0.3236   -7.3106    0.0000 C   0  0  0  0  0  0  0  0  0  0  0  0
   -0.2285   -6.6975    0.0000 C   0  0  0  0  0  0  0  0  0  0  0  0
   -1.0354   -6.8690    0.0000 C   0  0  0  0  0  0  0  0  0  0  0  0
   -1.2904   -7.6537    0.0000 O   0  0  0  0  0  0  0  0  0  0  0  0
    0.0265   -5.9129    0.0000 C   0  0  0  0  0  0  0  0  0  0  0  0
    0.5363   -4.3437    0.0000 C   0  0  0  0  0  0  0  0  0  0  0  0
   -0.2706   -4.5152    0.0000 F   0  0  0  0  0  0  0  0  0  0  0  0
    0.7913   -3.5590    0.0000 C   0  0  0  0  0  0  0  0  0  0  0  0
  1  2  2  0  0  0  0
  2  3  1  0  0  0  0
  3  4  4  0  0  0  0
  4  5  4  0  0  0  0
  5  6  4  0  0  0  0
  6  7  4  0  0  0  0
  7  8  4  0  0  0  0
  3  8  4  0  0  0  0
  8  9  1  0  0  0  0
  9 10  2  0  0  0  0
  9 11  1  0  0  0  0
 11 12  4  0  0  0  0
  2 12  1  0  0  0  0
 12 13  4  0  0  0  0
 13 14  4  0  0  0  0
 14 15  4  0  0  0  0
 11 15  4  0  0  0  0
 15 16  1  0  0  0  0
 16 17  4  0  0  0  0
 17 18  4  0  0  0  0
 18 19  1  0  0  0  0
 18 20  4  0  0  0  0
 20 21  1  0  0  0  0
 21 22  4  0  0  0  0
 22 23  4  0  0  0  0
 23 24  4  0  0  0  0
 24 25  4  0  0  0  0
 25 26  1  0  0  0  0
 26 27  1  0  0  0  0
 25 28  4  0  0  0  0
 21 28  4  0  0  0  0
 20 29  4  0  0  0  0
 29 30  1  0  0  0  0
 29 31  4  0  0  0  0
 16 31  4  0  0  0  0
M  END
> <IC50(uM)>
0.0012

> <Outcome>
1.0

> <BindingDB ID>
51338202

> <BindingDB MonomerID>
50541676

> <BindingDB Ligand Name>
CHEMBL4637493

> <Curation/DataSource>
ChEMBL

> <Article DOI>
10.1021/acs.jmedchem.0c00512

> <PMID>
32496056

> <Patent Number>
?

> <Authors>
Zuo, Z; Liu, X; Qian, X; Zeng, T; Sang, N; Liu, H; Zhou, Y; Tao, L; Zhou, X; Su, N; Yu, Y; Chen, Q; Luo, Y; Zhao, Y

> <Link to Ligand in BindingDB>
http://www.bindingdb.org/bind/chemsearch/marvin/MolStructure.jsp?monomerid=50541676

> <Link to Ligand-Target Pair in BindingDB>
http://www.bindingdb.org/jsp/dbsearch/PrimarySearch_ki.jsp?energyterm=kJ/mole&tag=r21&monomerid=50541676&enzyme=Dihydroorotate+dehydrogenase&column=ki&startPg=0&Increment=50&submit=Search

> <PubChem CID>
145997863

> <PubChem SID>
442143239

$$$$

  Mrv2115 07222212352D          

 37 41  0  0  0  0            999 V2000
   -7.6409   -2.8414    0.0000 C   0  0  0  0  0  0  0  0  0  0  0  0
   -6.8159   -2.8414    0.0000 O   0  0  0  0  0  0  0  0  0  0  0  0
   -6.4034   -2.1269    0.0000 C   0  0  0  0  0  0  0  0  0  0  0  0
   -6.8159   -1.4124    0.0000 C   0  0  0  0  0  0  0  0  0  0  0  0
   -6.4034   -0.6979    0.0000 N   0  0  0  0  0  0  0  0  0  0  0  0
   -5.5784   -0.6979    0.0000 C   0  0  0  0  0  0  0  0  0  0  0  0
   -5.1659   -1.4124    0.0000 C   0  0  0  0  0  0  0  0  0  0  0  0
   -4.3409   -1.4124    0.0000 N   0  0  0  0  0  0  0  0  0  0  0  0
   -3.9284   -0.6979    0.0000 C   0  0  0  0  0  0  0  0  0  0  0  0
   -4.3409    0.0165    0.0000 O   0  0  0  0  0  0  0  0  0  0  0  0
   -3.1034   -0.6979    0.0000 C   0  0  0  0  0  0  0  0  0  0  0  0
   -2.6909    0.0165    0.0000 C   0  0  0  0  0  0  0  0  0  0  0  0
   -1.8659    0.0165    0.0000 C   0  0  0  0  0  0  0  0  0  0  0  0
   -1.4534    0.7310    0.0000 F   0  0  0  0  0  0  0  0  0  0  0  0
   -1.4534   -0.6979    0.0000 C   0  0  0  0  0  0  0  0  0  0  0  0
   -0.6284   -0.6979    0.0000 N   0  0  0  0  0  0  0  0  0  0  0  0
   -0.1435   -1.3654    0.0000 N   0  0  0  0  0  0  0  0  0  0  0  0
    0.6411   -1.1104    0.0000 C   0  0  0  0  0  0  0  0  0  0  0  0
    0.6411   -0.2854    0.0000 N   0  0  0  0  0  0  0  0  0  0  0  0
   -0.1435   -0.0305    0.0000 C   0  0  0  0  0  0  0  0  0  0  0  0
   -0.3984    0.7541    0.0000 O   0  0  0  0  0  0  0  0  0  0  0  0
    1.3556    0.1271    0.0000 C   0  0  0  0  0  0  0  0  0  0  0  0
    2.0701   -0.2854    0.0000 C   0  0  0  0  0  0  0  0  0  0  0  0
    2.0701   -1.1104    0.0000 C   0  0  0  0  0  0  0  0  0  0  0  0
    1.3556   -1.5229    0.0000 C   0  0  0  0  0  0  0  0  0  0  0  0
   -1.8659   -1.4124    0.0000 C   0  0  0  0  0  0  0  0  0  0  0  0
   -2.6909   -1.4124    0.0000 C   0  0  0  0  0  0  0  0  0  0  0  0
   -3.1034   -2.1269    0.0000 O   0  0  0  0  0  0  0  0  0  0  0  0
   -2.6909   -2.8414    0.0000 C   0  0  0  0  0  0  0  0  0  0  0  0
   -1.8659   -2.8414    0.0000 C   0  0  0  0  0  0  0  0  0  0  0  0
   -3.1034   -3.5558    0.0000 C   0  0  0  0  0  0  0  0  0  0  0  0
   -2.6909   -4.2703    0.0000 C   0  0  0  0  0  0  0  0  0  0  0  0
   -3.1034   -4.9848    0.0000 C   0  0  0  0  0  0  0  0  0  0  0  0
   -3.9284   -4.9848    0.0000 C   0  0  0  0  0  0  0  0  0  0  0  0
   -4.3409   -4.2703    0.0000 C   0  0  0  0  0  0  0  0  0  0  0  0
   -3.9284   -3.5558    0.0000 C   0  0  0  0  0  0  0  0  0  0  0  0
   -5.5784   -2.1269    0.0000 N   0  0  0  0  0  0  0  0  0  0  0  0
  1  2  1  0  0  0  0
  2  3  1  0  0  0  0
  3  4  4  0  0  0  0
  4  5  4  0  0  0  0
  5  6  4  0  0  0  0
  6  7  4  0  0  0  0
  7  8  1  0  0  0  0
  8  9  1  0  0  0  0
  9 10  2  0  0  0  0
  9 11  1  0  0  0  0
 11 12  4  0  0  0  0
 12 13  4  0  0  0  0
 13 14  1  0  0  0  0
 13 15  4  0  0  0  0
 15 16  1  0  0  0  0
 16 17  4  0  0  0  0
 17 18  4  0  0  0  0
 18 19  4  0  0  0  0
 19 20  4  0  0  0  0
 16 20  4  0  0  0  0
 20 21  2  0  0  0  0
 19 22  1  0  0  0  0
 22 23  1  0  0  0  0
 23 24  1  0  0  0  0
 24 25  1  0  0  0  0
 18 25  1  0  0  0  0
 15 26  4  0  0  0  0
 26 27  4  0  0  0  0
 11 27  4  0  0  0  0
 27 28  1  0  0  0  0
 28 29  1  0  0  0  0
 29 30  1  0  0  0  0
 29 31  1  0  0  0  0
 31 32  1  0  0  0  0
 32 33  1  0  0  0  0
 33 34  1  0  0  0  0
 34 35  1  0  0  0  0
 35 36  1  0  0  0  0
 31 36  1  0  0  0  0
  7 37  4  0  0  0  0
  3 37  4  0  0  0  0
M  END
> <IC50(uM)>
0.3

> <Outcome>
1.0

> <BindingDB ID>
1020511

> <BindingDB MonomerID>
490459

> <BindingDB Ligand Name>
2-[(1S)-1-cyclohexylethoxy]-5-fluoro-N-(6-methoxypyrazin-2-yl)-4-(3-oxo-5,6,7,8-tetrahydro[1,2,4]triazolo[4,3-a]pyridin-2(3H)-yl)benzamide::US10968216, Example 127

> <Curation/DataSource>
US Patent

> <Article DOI>
?

> <PMID>
?

> <Patent Number>
US10968216

> <Authors>
Gradl, SN; Nguyen, D; Eis, K; Gunther, J; Stellfeld, T; Janzer, A; Christian, S; Mueller, T; Sheikh, SE; Zhou, HJ; Zhao, C; Sykes, DB; Ferrara, SJ; Liu, K; Herbert, SA; Merz, C; Niehues, M; Nising, CF; Schafer, M; Zimmermann, K; Knablein, J; Thede, K; Faupel, T

> <Link to Ligand in BindingDB>
http://www.bindingdb.org/bind/chemsearch/marvin/MolStructure.jsp?monomerid=490459

> <Link to Ligand-Target Pair in BindingDB>
http://www.bindingdb.org/jsp/dbsearch/PrimarySearch_ki.jsp?energyterm=kJ/mole&tag=r21&monomerid=490459&enzyme=Dihydroorotate+dehydrogenase&column=ki&startPg=0&Increment=50&submit=Search

> <PubChem CID>
134474146

> <PubChem SID>
447117186

$$$$

  Mrv2115 07222212352D          

 28 31  0  0  0  0            999 V2000
    2.1434   -2.8875    0.0000 O   0  0  0  0  0  0  0  0  0  0  0  0
    1.4289   -2.4750    0.0000 C   0  0  0  0  0  0  0  0  0  0  0  0
    0.7145   -2.8875    0.0000 O   0  0  0  0  0  0  0  0  0  0  0  0
    1.4289   -1.6500    0.0000 C   0  0  0  0  0  0  0  0  0  0  0  0
    0.7145   -1.2375    0.0000 C   0  0  0  0  0  0  0  0  0  0  0  0
    0.0000   -1.6500    0.0000 O   0  0  0  0  0  0  0  0  0  0  0  0
    0.7145   -0.4125    0.0000 C   0  0  0  0  0  0  0  0  0  0  0  0
    0.0000    0.0000    0.0000 C   0  0  0  0  0  0  0  0  0  0  0  0
   -0.7145   -0.4125    0.0000 C   0  0  0  0  0  0  0  0  0  0  0  0
   -1.4289    0.0000    0.0000 C   0  0  0  0  0  0  0  0  0  0  0  0
   -1.4289    0.8250    0.0000 C   0  0  0  0  0  0  0  0  0  0  0  0
   -2.1434    1.2375    0.0000 O   0  0  0  0  0  0  0  0  0  0  0  0
   -2.1434    2.0625    0.0000 C   0  0  0  0  0  0  0  0  0  0  0  0
   -2.8579    2.4750    0.0000 C   0  0  0  0  0  0  0  0  0  0  0  0
   -2.8579    3.3000    0.0000 C   0  0  0  0  0  0  0  0  0  0  0  0
   -2.1434    3.7125    0.0000 C   0  0  0  0  0  0  0  0  0  0  0  0
   -1.4289    3.3000    0.0000 C   0  0  0  0  0  0  0  0  0  0  0  0
   -1.4289    2.4750    0.0000 C   0  0  0  0  0  0  0  0  0  0  0  0
   -0.7145    1.2375    0.0000 C   0  0  0  0  0  0  0  0  0  0  0  0
    0.0000    0.8250    0.0000 C   0  0  0  0  0  0  0  0  0  0  0  0
    1.4289    0.0000    0.0000 N   0  0  0  0  0  0  0  0  0  0  0  0
    2.1434   -0.4125    0.0000 C   0  0  0  0  0  0  0  0  0  0  0  0
    2.8579    0.0000    0.0000 C   0  0  0  0  0  0  0  0  0  0  0  0
    3.5724   -0.4125    0.0000 C   0  0  0  0  0  0  0  0  0  0  0  0
    3.5724   -1.2375    0.0000 C   0  0  0  0  0  0  0  0  0  0  0  0
    4.2868   -1.6500    0.0000 F   0  0  0  0  0  0  0  0  0  0  0  0
    2.8579   -1.6500    0.0000 C   0  0  0  0  0  0  0  0  0  0  0  0
    2.1434   -1.2375    0.0000 C   0  0  0  0  0  0  0  0  0  0  0  0
  1  2  2  0  0  0  0
  2  3  1  0  0  0  0
  2  4  1  0  0  0  0
  4  5  4  0  0  0  0
  5  6  1  0  0  0  0
  5  7  4  0  0  0  0
  7  8  1  0  0  0  0
  8  9  4  0  0  0  0
  9 10  4  0  0  0  0
 10 11  4  0  0  0  0
 11 12  1  0  0  0  0
 12 13  1  0  0  0  0
 13 14  4  0  0  0  0
 14 15  4  0  0  0  0
 15 16  4  0  0  0  0
 16 17  4  0  0  0  0
 17 18  4  0  0  0  0
 13 18  4  0  0  0  0
 11 19  4  0  0  0  0
 19 20  4  0  0  0  0
  8 20  4  0  0  0  0
  7 21  4  0  0  0  0
 21 22  4  0  0  0  0
 22 23  4  0  0  0  0
 23 24  4  0  0  0  0
 24 25  4  0  0  0  0
 25 26  1  0  0  0  0
 25 27  4  0  0  0  0
 27 28  4  0  0  0  0
  4 28  4  0  0  0  0
 22 28  4  0  0  0  0
M  END
> <IC50(uM)>
0.006

> <Outcome>
1.0

> <BindingDB ID>
50841924

> <BindingDB MonomerID>
50201945

> <BindingDB Ligand Name>
6-fluoro-3-hydroxy-2-(4-phenoxyphenyl)quinoline-4-carboxylic acid::CHEMBL218084

> <Curation/DataSource>
ChEMBL

> <Article DOI>
10.1021/jm0602256

> <PMID>
17201408

> <Patent Number>
?

> <Authors>
Kaila, N; Janz, K; DeBernardo, S; Bedard, PW; Camphausen, RT; Tam, S; Tsao, DH; Keith, JC; Nickerson-Nutter, C; Shilling, A; Young-Sciame, R; Wang, Q

> <Link to Ligand in BindingDB>
http://www.bindingdb.org/bind/chemsearch/marvin/MolStructure.jsp?monomerid=50201945

> <Link to Ligand-Target Pair in BindingDB>
http://www.bindingdb.org/jsp/dbsearch/PrimarySearch_ki.jsp?energyterm=kJ/mole&tag=r21&monomerid=50201945&enzyme=Dihydroorotate+dehydrogenase&column=ki&startPg=0&Increment=50&submit=Search

> <PubChem CID>
14498174

> <PubChem SID>
104081596

$$$$

  Mrv2115 07222212352D          

 19 20  0  0  0  0            999 V2000
    0.6078   -0.4741    0.0000 C   0  0  0  0  0  0  0  0  0  0  0  0
    1.3222   -0.0616    0.0000 O   0  0  0  0  0  0  0  0  0  0  0  0
    2.0367   -0.4741    0.0000 C   0  0  0  0  0  0  0  0  0  0  0  0
    2.7512   -0.0616    0.0000 O   0  0  0  0  0  0  0  0  0  0  0  0
    2.0367   -1.2991    0.0000 C   0  0  0  0  0  0  0  0  0  0  0  0
    1.3693   -1.7840    0.0000 C   0  0  0  0  0  0  0  0  0  0  0  0
    0.5846   -1.5291    0.0000 O   0  0  0  0  0  0  0  0  0  0  0  0
    1.6242   -2.5687    0.0000 C   0  0  0  0  0  0  0  0  0  0  0  0
    2.4492   -2.5687    0.0000 S   0  0  0  0  0  0  0  0  0  0  0  0
    2.7041   -1.7840    0.0000 C   0  0  0  0  0  0  0  0  0  0  0  0
    3.4888   -1.5291    0.0000 N   0  0  0  0  0  0  0  0  0  0  0  0
    4.1019   -2.0811    0.0000 C   0  0  0  0  0  0  0  0  0  0  0  0
    4.8865   -1.8262    0.0000 C   0  0  0  0  0  0  0  0  0  0  0  0
    5.4996   -2.3782    0.0000 C   0  0  0  0  0  0  0  0  0  0  0  0
    5.3281   -3.1852    0.0000 C   0  0  0  0  0  0  0  0  0  0  0  0
    5.9411   -3.7372    0.0000 C   0  0  0  0  0  0  0  0  0  0  0  0
    4.5434   -3.4401    0.0000 C   0  0  0  0  0  0  0  0  0  0  0  0
    4.3719   -4.2471    0.0000 C   0  0  0  0  0  0  0  0  0  0  0  0
    3.9303   -2.8881    0.0000 C   0  0  0  0  0  0  0  0  0  0  0  0
  1  2  1  0  0  0  0
  2  3  1  0  0  0  0
  3  4  2  0  0  0  0
  3  5  1  0  0  0  0
  5  6  4  0  0  0  0
  6  7  1  0  0  0  0
  6  8  4  0  0  0  0
  8  9  4  0  0  0  0
  9 10  4  0  0  0  0
  5 10  4  0  0  0  0
 10 11  1  0  0  0  0
 11 12  1  0  0  0  0
 12 13  4  0  0  0  0
 13 14  4  0  0  0  0
 14 15  4  0  0  0  0
 15 16  1  0  0  0  0
 15 17  4  0  0  0  0
 17 18  1  0  0  0  0
 17 19  4  0  0  0  0
 12 19  4  0  0  0  0
M  END
> <IC50(uM)>
50.0

> <Outcome>
0.0

> <BindingDB ID>
51079163

> <BindingDB MonomerID>
50441271

> <BindingDB Ligand Name>
CHEMBL2431522

> <Curation/DataSource>
ChEMBL

> <Article DOI>
10.1021/jm400938g

> <PMID>
24073986

> <Patent Number>
?

> <Authors>
Xu, M; Zhu, J; Diao, Y; Zhou, H; Ren, X; Sun, D; Huang, J; Han, D; Zhao, Z; Zhu, L; Xu, Y; Li, H

> <Link to Ligand in BindingDB>
http://www.bindingdb.org/bind/chemsearch/marvin/MolStructure.jsp?monomerid=50441271

> <Link to Ligand-Target Pair in BindingDB>
http://www.bindingdb.org/jsp/dbsearch/PrimarySearch_ki.jsp?energyterm=kJ/mole&tag=r21&monomerid=50441271&enzyme=Dihydroorotate+dehydrogenase&column=ki&startPg=0&Increment=50&submit=Search

> <PubChem CID>
91898832

> <PubChem SID>
175453588

$$$$

  Mrv2115 07222212352D          

 29 32  0  0  0  0            999 V2000
    3.9934    2.4750    0.0000 O   0  0  0  0  0  0  0  0  0  0  0  0
    3.2789    2.0625    0.0000 C   0  0  0  0  0  0  0  0  0  0  0  0
    2.5645    2.4750    0.0000 O   0  0  0  0  0  0  0  0  0  0  0  0
    3.2789    1.2375    0.0000 C   0  0  0  0  0  0  0  0  0  0  0  0
    3.9934    0.8250    0.0000 C   0  0  0  0  0  0  0  0  0  0  0  0
    3.9934    0.0000    0.0000 C   0  0  0  0  0  0  0  0  0  0  0  0
    3.2789   -0.4125    0.0000 C   0  0  0  0  0  0  0  0  0  0  0  0
    2.5645    0.0000    0.0000 C   0  0  0  0  0  0  0  0  0  0  0  0
    1.7798   -0.2549    0.0000 N   0  0  0  0  0  0  0  0  0  0  0  0
    1.2949    0.4125    0.0000 C   0  0  0  0  0  0  0  0  0  0  0  0
    0.4699    0.4125    0.0000 C   0  0  0  0  0  0  0  0  0  0  0  0
    0.0574   -0.3020    0.0000 C   0  0  0  0  0  0  0  0  0  0  0  0
   -0.7676   -0.3020    0.0000 C   0  0  0  0  0  0  0  0  0  0  0  0
   -1.1801    0.4125    0.0000 C   0  0  0  0  0  0  0  0  0  0  0  0
   -2.0051    0.4125    0.0000 C   0  0  0  0  0  0  0  0  0  0  0  0
   -2.4176   -0.3020    0.0000 C   0  0  0  0  0  0  0  0  0  0  0  0
   -3.2426   -0.3020    0.0000 C   0  0  0  0  0  0  0  0  0  0  0  0
   -3.6551    0.4125    0.0000 C   0  0  0  0  0  0  0  0  0  0  0  0
   -3.2426    1.1270    0.0000 C   0  0  0  0  0  0  0  0  0  0  0  0
   -3.6551    1.8414    0.0000 O   0  0  0  0  0  0  0  0  0  0  0  0
   -4.4801    1.8414    0.0000 C   0  0  0  0  0  0  0  0  0  0  0  0
   -5.3051    1.8414    0.0000 F   0  0  0  0  0  0  0  0  0  0  0  0
   -4.4801    2.6664    0.0000 F   0  0  0  0  0  0  0  0  0  0  0  0
   -4.4801    1.0164    0.0000 F   0  0  0  0  0  0  0  0  0  0  0  0
   -2.4176    1.1270    0.0000 C   0  0  0  0  0  0  0  0  0  0  0  0
   -0.7676    1.1270    0.0000 C   0  0  0  0  0  0  0  0  0  0  0  0
    0.0574    1.1270    0.0000 C   0  0  0  0  0  0  0  0  0  0  0  0
    1.7798    1.0799    0.0000 N   0  0  0  0  0  0  0  0  0  0  0  0
    2.5645    0.8250    0.0000 C   0  0  0  0  0  0  0  0  0  0  0  0
  1  2  2  0  0  0  0
  2  3  1  0  0  0  0
  2  4  1  0  0  0  0
  4  5  4  0  0  0  0
  5  6  4  0  0  0  0
  6  7  4  0  0  0  0
  7  8  4  0  0  0  0
  8  9  4  0  0  0  0
  9 10  4  0  0  0  0
 10 11  1  0  0  0  0
 11 12  4  0  0  0  0
 12 13  4  0  0  0  0
 13 14  4  0  0  0  0
 14 15  1  0  0  0  0
 15 16  4  0  0  0  0
 16 17  4  0  0  0  0
 17 18  4  0  0  0  0
 18 19  4  0  0  0  0
 19 20  1  0  0  0  0
 20 21  1  0  0  0  0
 21 22  1  0  0  0  0
 21 23  1  0  0  0  0
 21 24  1  0  0  0  0
 19 25  4  0  0  0  0
 15 25  4  0  0  0  0
 14 26  4  0  0  0  0
 26 27  4  0  0  0  0
 11 27  4  0  0  0  0
 10 28  4  0  0  0  0
 28 29  4  0  0  0  0
  4 29  4  0  0  0  0
  8 29  4  0  0  0  0
M  STY  1   1 DAT
M  SAL   1  1   9
M  SDT   1 MRV_IMPLICIT_H                                        
M  SDD   1     0.5304   -0.4125    DR    ALL  0       0  
M  SED   1 IMPL_H1
M  END
> <IC50(uM)>
1.26

> <Outcome>
0.0

> <BindingDB ID>
297752

> <BindingDB MonomerID>
155408

> <BindingDB Ligand Name>
US9006454, I18

> <Curation/DataSource>
US Patent

> <Article DOI>
?

> <PMID>
?

> <Patent Number>
US9006454

> <Authors>
Thunuguntla, SS; Subramanya, H; Kunnam, SR; Sanivaru Vijay, SR; Bingi, C; Kusanur, R; Schwarz, M; Arlt, M

> <Link to Ligand in BindingDB>
http://www.bindingdb.org/bind/chemsearch/marvin/MolStructure.jsp?monomerid=155408

> <Link to Ligand-Target Pair in BindingDB>
http://www.bindingdb.org/jsp/dbsearch/PrimarySearch_ki.jsp?energyterm=kJ/mole&tag=r21&monomerid=155408&enzyme=Dihydroorotate+dehydrogenase&column=ki&startPg=0&Increment=50&submit=Search

> <PubChem CID>
46945988

> <PubChem SID>
253658345

$$$$

  Mrv2115 07222212352D          

 36 38  0  0  0  0            999 V2000
    2.1434   -3.7125    0.0000 C   0  0  0  0  0  0  0  0  0  0  0  0
    1.4289   -4.1250    0.0000 C   0  0  0  0  0  0  0  0  0  0  0  0
    1.4289   -4.9500    0.0000 N   0  0  0  0  0  0  0  0  0  0  0  0
    0.7615   -5.4349    0.0000 C   0  0  0  0  0  0  0  0  0  0  0  0
   -0.0231   -5.1800    0.0000 C   0  0  0  0  0  0  0  0  0  0  0  0
   -0.1946   -4.3730    0.0000 N   0  0  0  0  0  0  0  0  0  0  0  0
   -0.6362   -5.7320    0.0000 O   0  0  0  0  0  0  0  0  0  0  0  0
    1.0164   -6.2195    0.0000 N   0  0  0  0  0  0  0  0  0  0  0  0
    1.8414   -6.2195    0.0000 N   0  0  0  0  0  0  0  0  0  0  0  0
    2.3264   -6.8870    0.0000 C   0  0  0  0  0  0  0  0  0  0  0  0
    3.1468   -6.8007    0.0000 C   0  0  0  0  0  0  0  0  0  0  0  0
    3.6318   -7.4682    0.0000 C   0  0  0  0  0  0  0  0  0  0  0  0
    4.4522   -7.3820    0.0000 O   0  0  0  0  0  0  0  0  0  0  0  0
    4.7878   -6.6283    0.0000 C   0  0  0  0  0  0  0  0  0  0  0  0
    4.3029   -5.9608    0.0000 C   0  0  0  0  0  0  0  0  0  0  0  0
    5.6083   -6.5420    0.0000 C   0  0  0  0  0  0  0  0  0  0  0  0
    5.6945   -7.3625    0.0000 F   0  0  0  0  0  0  0  0  0  0  0  0
    5.5221   -5.7216    0.0000 F   0  0  0  0  0  0  0  0  0  0  0  0
    6.4288   -6.4558    0.0000 F   0  0  0  0  0  0  0  0  0  0  0  0
    3.2962   -8.2219    0.0000 C   0  0  0  0  0  0  0  0  0  0  0  0
    3.7811   -8.8893    0.0000 C   0  0  0  0  0  0  0  0  0  0  0  0
    3.4456   -9.6430    0.0000 O   0  0  0  0  0  0  0  0  0  0  0  0
    4.6016   -8.8031    0.0000 N   0  0  0  0  0  0  0  0  0  0  0  0
    5.0865   -9.4705    0.0000 C   0  0  0  0  0  0  0  0  0  0  0  0
    5.9070   -9.3843    0.0000 C   0  0  0  0  0  0  0  0  0  0  0  0
    6.2426   -8.6306    0.0000 F   0  0  0  0  0  0  0  0  0  0  0  0
    6.3919  -10.0517    0.0000 C   0  0  0  0  0  0  0  0  0  0  0  0
    6.0564  -10.8054    0.0000 C   0  0  0  0  0  0  0  0  0  0  0  0
    5.2359  -10.8916    0.0000 C   0  0  0  0  0  0  0  0  0  0  0  0
    4.7510  -10.2242    0.0000 C   0  0  0  0  0  0  0  0  0  0  0  0
    3.9305  -10.3104    0.0000 Cl  0  0  0  0  0  0  0  0  0  0  0  0
    2.4757   -8.3081    0.0000 C   0  0  0  0  0  0  0  0  0  0  0  0
    1.9908   -7.6407    0.0000 C   0  0  0  0  0  0  0  0  0  0  0  0
    1.1703   -7.7269    0.0000 F   0  0  0  0  0  0  0  0  0  0  0  0
    2.0964   -5.4349    0.0000 C   0  0  0  0  0  0  0  0  0  0  0  0
    2.8810   -5.1800    0.0000 O   0  0  0  0  0  0  0  0  0  0  0  0
  1  2  1  0  0  0  0
  2  3  1  0  0  0  0
  3  4  4  0  0  0  0
  4  5  1  0  0  0  0
  5  6  1  0  0  0  0
  5  7  2  0  0  0  0
  4  8  4  0  0  0  0
  8  9  4  0  0  0  0
  9 10  1  0  0  0  0
 10 11  4  0  0  0  0
 11 12  4  0  0  0  0
 12 13  1  0  0  0  0
 13 14  1  0  0  0  0
 14 15  1  0  0  0  0
 14 16  1  0  0  0  0
 16 17  1  0  0  0  0
 16 18  1  0  0  0  0
 16 19  1  0  0  0  0
 12 20  4  0  0  0  0
 20 21  1  0  0  0  0
 21 22  2  0  0  0  0
 21 23  1  0  0  0  0
 23 24  1  0  0  0  0
 24 25  4  0  0  0  0
 25 26  1  0  0  0  0
 25 27  4  0  0  0  0
 27 28  4  0  0  0  0
 28 29  4  0  0  0  0
 29 30  4  0  0  0  0
 24 30  4  0  0  0  0
 30 31  1  0  0  0  0
 20 32  4  0  0  0  0
 32 33  4  0  0  0  0
 10 33  4  0  0  0  0
 33 34  1  0  0  0  0
  9 35  4  0  0  0  0
  3 35  4  0  0  0  0
 35 36  2  0  0  0  0
M  END
> <IC50(uM)>
0.003

> <Outcome>
1.0

> <BindingDB ID>
1098844; 972690

> <BindingDB MonomerID>
470568

> <BindingDB Ligand Name>
1-(4-[(2-chloro-6-fluorophenyl)carbamoyl]-2-fluoro-5-{[(2S)-1,1,1-trifluoropropan-2-yl]oxy}phenyl)-4-ethyl-5-oxo-4,5-dihydro-1H-1,2,4-triazole-3-carboxamide::US10815215, Example 228::US11130745, Example 228; 1-(4-[(2-chloro-6-fluorophenyl)carbamoyl]-2-fluoro-5-{[(2S)-1,1,1-trifluoropropan-2-yl]oxy}phenyl)-4-ethyl-5-oxo-4,5-dihydro-1H-1,2,4-triazole-3-carboxamide::US10815215, Example 228

> <Curation/DataSource>
US Patent

> <Article DOI>
?

> <PMID>
?

> <Patent Number>
US11130745; US10815215

> <Authors>
Gradl, SN; Nguyen, D; Eis, K; Gunther, J; Stellfeld, T; Janzer, A; Christian, S; Muller, T; Sheikh, SE; Sykes, DB; Ferrara, SJ; Krober, M; Merz, C; Niehues, M; Schafer, M; Zimmermann, K; Nising, CF; Gradl, SN; Nguyen, D; Eis, K; Gunther, J; Stellfeld, T; Janzer, A; Christian, S; Muller, T; Sheikh, SE; Zhou, HJ; Zhao, C; Sykes, DB; Ferrara, SJ; Liu, K; Krober, M; Merz, C; Niehues, M; Schafer, M; Zimmermann, K; Nising, CF

> <Link to Ligand in BindingDB>
http://www.bindingdb.org/bind/chemsearch/marvin/MolStructure.jsp?monomerid=470568

> <Link to Ligand-Target Pair in BindingDB>
http://www.bindingdb.org/jsp/dbsearch/PrimarySearch_ki.jsp?energyterm=kJ/mole&tag=r21&monomerid=470568&enzyme=Dihydroorotate+dehydrogenase&column=ki&startPg=0&Increment=50&submit=Search

> <PubChem CID>
142335828

> <PubChem SID>
441609744

$$$$

  Mrv2115 07222212352D          

 33 37  0  0  0  0            999 V2000
    4.0668    2.3479    0.0000 C   0  0  0  0  0  0  0  0  0  0  0  0
    3.3523    1.9354    0.0000 C   0  0  0  0  0  0  0  0  0  0  0  0
    3.3523    1.1104    0.0000 C   0  0  0  0  0  0  0  0  0  0  0  0
    2.6378    0.6979    0.0000 C   0  0  0  0  0  0  0  0  0  0  0  0
    2.6378   -0.1271    0.0000 C   0  0  0  0  0  0  0  0  0  0  0  0
    1.9233   -0.5396    0.0000 O   0  0  0  0  0  0  0  0  0  0  0  0
    3.3523   -0.5396    0.0000 O   0  0  0  0  0  0  0  0  0  0  0  0
    1.9233    1.1104    0.0000 C   0  0  0  0  0  0  0  0  0  0  0  0
    1.1387    0.8555    0.0000 N   0  0  0  0  0  0  0  0  0  0  0  0
    0.6538    1.5229    0.0000 C   0  0  0  0  0  0  0  0  0  0  0  0
   -0.1712    1.5229    0.0000 C   0  0  0  0  0  0  0  0  0  0  0  0
   -0.5837    0.8085    0.0000 C   0  0  0  0  0  0  0  0  0  0  0  0
   -1.4087    0.8085    0.0000 C   0  0  0  0  0  0  0  0  0  0  0  0
   -1.8212    1.5229    0.0000 C   0  0  0  0  0  0  0  0  0  0  0  0
   -2.6462    1.5229    0.0000 C   0  0  0  0  0  0  0  0  0  0  0  0
   -3.0587    0.8085    0.0000 C   0  0  0  0  0  0  0  0  0  0  0  0
   -3.8837    0.8085    0.0000 C   0  0  0  0  0  0  0  0  0  0  0  0
   -4.2962    1.5229    0.0000 C   0  0  0  0  0  0  0  0  0  0  0  0
   -5.1212    1.5229    0.0000 O   0  0  0  0  0  0  0  0  0  0  0  0
   -5.5337    0.8085    0.0000 C   0  0  0  0  0  0  0  0  0  0  0  0
   -6.3587    0.8085    0.0000 C   0  0  0  0  0  0  0  0  0  0  0  0
   -6.7712    0.0940    0.0000 C   0  0  0  0  0  0  0  0  0  0  0  0
   -7.5962    0.0940    0.0000 C   0  0  0  0  0  0  0  0  0  0  0  0
   -8.0087    0.8085    0.0000 N   0  0  0  0  0  0  0  0  0  0  0  0
   -7.5962    1.5229    0.0000 C   0  0  0  0  0  0  0  0  0  0  0  0
   -6.7712    1.5229    0.0000 C   0  0  0  0  0  0  0  0  0  0  0  0
   -3.8837    2.2374    0.0000 C   0  0  0  0  0  0  0  0  0  0  0  0
   -3.0587    2.2374    0.0000 C   0  0  0  0  0  0  0  0  0  0  0  0
   -1.4087    2.2374    0.0000 C   0  0  0  0  0  0  0  0  0  0  0  0
   -0.5837    2.2374    0.0000 C   0  0  0  0  0  0  0  0  0  0  0  0
    1.1387    2.1904    0.0000 N   0  0  0  0  0  0  0  0  0  0  0  0
    1.9233    1.9354    0.0000 C   0  0  0  0  0  0  0  0  0  0  0  0
    2.6378    2.3479    0.0000 C   0  0  0  0  0  0  0  0  0  0  0  0
  1  2  1  0  0  0  0
  2  3  4  0  0  0  0
  3  4  4  0  0  0  0
  4  5  1  0  0  0  0
  5  6  2  0  0  0  0
  5  7  1  0  0  0  0
  4  8  4  0  0  0  0
  8  9  4  0  0  0  0
  9 10  4  0  0  0  0
 10 11  1  0  0  0  0
 11 12  4  0  0  0  0
 12 13  4  0  0  0  0
 13 14  4  0  0  0  0
 14 15  1  0  0  0  0
 15 16  4  0  0  0  0
 16 17  4  0  0  0  0
 17 18  4  0  0  0  0
 18 19  1  0  0  0  0
 19 20  1  0  0  0  0
 20 21  1  0  0  0  0
 21 22  4  0  0  0  0
 22 23  4  0  0  0  0
 23 24  4  0  0  0  0
 24 25  4  0  0  0  0
 25 26  4  0  0  0  0
 21 26  4  0  0  0  0
 18 27  4  0  0  0  0
 27 28  4  0  0  0  0
 15 28  4  0  0  0  0
 14 29  4  0  0  0  0
 29 30  4  0  0  0  0
 11 30  4  0  0  0  0
 10 31  4  0  0  0  0
 31 32  4  0  0  0  0
  8 32  4  0  0  0  0
 32 33  4  0  0  0  0
  2 33  4  0  0  0  0
M  STY  1   1 DAT
M  SAL   1  1  31
M  SDT   1 MRV_IMPLICIT_H                                        
M  SDD   1     0.5304   -0.4125    DR    ALL  0       0  
M  SED   1 IMPL_H1
M  END
> <IC50(uM)>
1.73

> <Outcome>
0.0

> <BindingDB ID>
297816

> <BindingDB MonomerID>
155472

> <BindingDB Ligand Name>
US9006454, I114

> <Curation/DataSource>
US Patent

> <Article DOI>
?

> <PMID>
?

> <Patent Number>
US9006454

> <Authors>
Thunuguntla, SS; Subramanya, H; Kunnam, SR; Sanivaru Vijay, SR; Bingi, C; Kusanur, R; Schwarz, M; Arlt, M

> <Link to Ligand in BindingDB>
http://www.bindingdb.org/bind/chemsearch/marvin/MolStructure.jsp?monomerid=155472

> <Link to Ligand-Target Pair in BindingDB>
http://www.bindingdb.org/jsp/dbsearch/PrimarySearch_ki.jsp?energyterm=kJ/mole&tag=r21&monomerid=155472&enzyme=Dihydroorotate+dehydrogenase&column=ki&startPg=0&Increment=50&submit=Search

> <PubChem CID>
58073875

> <PubChem SID>
253658409

$$$$

  Mrv2115 07222212352D          

 22 23  0  0  0  0            999 V2000
   -0.1067   -0.0616    0.0000 C   0  0  0  0  0  0  0  0  0  0  0  0
    0.6078   -0.4741    0.0000 C   0  0  0  0  0  0  0  0  0  0  0  0
    1.3222   -0.0616    0.0000 O   0  0  0  0  0  0  0  0  0  0  0  0
    2.0367   -0.4741    0.0000 C   0  0  0  0  0  0  0  0  0  0  0  0
    2.7512   -0.0616    0.0000 O   0  0  0  0  0  0  0  0  0  0  0  0
    2.0367   -1.2991    0.0000 C   0  0  0  0  0  0  0  0  0  0  0  0
    1.3693   -1.7840    0.0000 C   0  0  0  0  0  0  0  0  0  0  0  0
    0.5846   -1.5291    0.0000 C   0  0  0  0  0  0  0  0  0  0  0  0
    1.6242   -2.5687    0.0000 N   0  0  0  0  0  0  0  0  0  0  0  0
    2.4492   -2.5687    0.0000 N   0  0  0  0  0  0  0  0  0  0  0  0
    2.7041   -1.7840    0.0000 C   0  0  0  0  0  0  0  0  0  0  0  0
    3.4888   -1.5291    0.0000 N   0  0  0  0  0  0  0  0  0  0  0  0
    4.1019   -2.0811    0.0000 C   0  0  0  0  0  0  0  0  0  0  0  0
    4.8865   -1.8262    0.0000 C   0  0  0  0  0  0  0  0  0  0  0  0
    5.4996   -2.3782    0.0000 C   0  0  0  0  0  0  0  0  0  0  0  0
    5.3281   -3.1852    0.0000 C   0  0  0  0  0  0  0  0  0  0  0  0
    5.9411   -3.7372    0.0000 C   0  0  0  0  0  0  0  0  0  0  0  0
    6.5542   -4.2893    0.0000 F   0  0  0  0  0  0  0  0  0  0  0  0
    5.3891   -4.3503    0.0000 F   0  0  0  0  0  0  0  0  0  0  0  0
    6.4932   -3.1241    0.0000 F   0  0  0  0  0  0  0  0  0  0  0  0
    4.5434   -3.4401    0.0000 C   0  0  0  0  0  0  0  0  0  0  0  0
    3.9303   -2.8881    0.0000 C   0  0  0  0  0  0  0  0  0  0  0  0
  1  2  1  0  0  0  0
  2  3  1  0  0  0  0
  3  4  1  0  0  0  0
  4  5  2  0  0  0  0
  4  6  1  0  0  0  0
  6  7  4  0  0  0  0
  7  8  1  0  0  0  0
  7  9  4  0  0  0  0
  9 10  4  0  0  0  0
 10 11  4  0  0  0  0
  6 11  4  0  0  0  0
 11 12  1  0  0  0  0
 12 13  1  0  0  0  0
 13 14  4  0  0  0  0
 14 15  4  0  0  0  0
 15 16  4  0  0  0  0
 16 17  1  0  0  0  0
 17 18  1  0  0  0  0
 17 19  1  0  0  0  0
 17 20  1  0  0  0  0
 16 21  4  0  0  0  0
 21 22  4  0  0  0  0
 13 22  4  0  0  0  0
M  STY  1   1 DAT
M  SAL   1  1  10
M  SDT   1 MRV_IMPLICIT_H                                        
M  SDD   1     0.5304   -0.4125    DR    ALL  0       0  
M  SED   1 IMPL_H1
M  END
> <IC50(uM)>
50.0

> <Outcome>
0.0

> <BindingDB ID>
50786786

> <BindingDB MonomerID>
50066604

> <BindingDB Ligand Name>
5-Methyl-3-(4-trifluoromethyl-phenylamino)-1H-pyrazole-4-carboxylic acid ethyl ester::CHEMBL118921

> <Curation/DataSource>
ChEMBL

> <Article DOI>
10.1021/jm981028c

> <PMID>
9719606

> <Patent Number>
?

> <Authors>
Papageorgiou, C; Albert, R; Floersheim, P; Lemaire, M; Bitch, F; Weber, HP; Andersen, E; Hungerford, V; Schreier, MH

> <Link to Ligand in BindingDB>
http://www.bindingdb.org/bind/chemsearch/marvin/MolStructure.jsp?monomerid=50066604

> <Link to Ligand-Target Pair in BindingDB>
http://www.bindingdb.org/jsp/dbsearch/PrimarySearch_ki.jsp?energyterm=kJ/mole&tag=r21&monomerid=50066604&enzyme=Dihydroorotate+dehydrogenase&column=ki&startPg=0&Increment=50&submit=Search

> <PubChem CID>
10710291

> <PubChem SID>
103961224

$$$$

  Mrv2115 07222212352D          

 29 33  0  0  0  0            999 V2000
    6.7861   -5.3057    0.0000 C   0  0  0  0  0  0  0  0  0  0  0  0
    6.5311   -4.5211    0.0000 O   0  0  0  0  0  0  0  0  0  0  0  0
    5.7242   -4.3496    0.0000 C   0  0  0  0  0  0  0  0  0  0  0  0
    5.1721   -4.9627    0.0000 C   0  0  0  0  0  0  0  0  0  0  0  0
    4.3652   -4.7911    0.0000 C   0  0  0  0  0  0  0  0  0  0  0  0
    4.1102   -4.0065    0.0000 C   0  0  0  0  0  0  0  0  0  0  0  0
    4.6623   -3.3934    0.0000 C   0  0  0  0  0  0  0  0  0  0  0  0
    4.4073   -2.6088    0.0000 C   0  0  0  0  0  0  0  0  0  0  0  0
    3.6004   -2.4373    0.0000 C   0  0  0  0  0  0  0  0  0  0  0  0
    3.3454   -1.6527    0.0000 C   0  0  0  0  0  0  0  0  0  0  0  0
    3.8974   -1.0396    0.0000 C   0  0  0  0  0  0  0  0  0  0  0  0
    3.6425   -0.2549    0.0000 N   0  0  0  0  0  0  0  0  0  0  0  0
    4.1274    0.4125    0.0000 N   0  0  0  0  0  0  0  0  0  0  0  0
    3.6425    1.0799    0.0000 N   0  0  0  0  0  0  0  0  0  0  0  0
    2.8579    0.8250    0.0000 C   0  0  0  0  0  0  0  0  0  0  0  0
    2.8579    0.0000    0.0000 C   0  0  0  0  0  0  0  0  0  0  0  0
    2.1434   -0.4125    0.0000 C   0  0  0  0  0  0  0  0  0  0  0  0
    2.1434   -1.2375    0.0000 O   0  0  0  0  0  0  0  0  0  0  0  0
    1.4289   -0.0000    0.0000 C   0  0  0  0  0  0  0  0  0  0  0  0
    0.7145   -0.4125    0.0000 C   0  0  0  0  0  0  0  0  0  0  0  0
   -0.0000    0.0000    0.0000 C   0  0  0  0  0  0  0  0  0  0  0  0
    0.0000    0.8250    0.0000 C   0  0  0  0  0  0  0  0  0  0  0  0
    0.7145    1.2375    0.0000 C   0  0  0  0  0  0  0  0  0  0  0  0
    1.4289    0.8250    0.0000 C   0  0  0  0  0  0  0  0  0  0  0  0
    2.1434    1.2375    0.0000 C   0  0  0  0  0  0  0  0  0  0  0  0
    2.1434    2.0625    0.0000 O   0  0  0  0  0  0  0  0  0  0  0  0
    4.7044   -1.2111    0.0000 C   0  0  0  0  0  0  0  0  0  0  0  0
    4.9594   -1.9957    0.0000 C   0  0  0  0  0  0  0  0  0  0  0  0
    5.4692   -3.5650    0.0000 C   0  0  0  0  0  0  0  0  0  0  0  0
  1  2  1  0  0  0  0
  2  3  1  0  0  0  0
  3  4  4  0  0  0  0
  4  5  4  0  0  0  0
  5  6  4  0  0  0  0
  6  7  4  0  0  0  0
  7  8  1  0  0  0  0
  8  9  4  0  0  0  0
  9 10  4  0  0  0  0
 10 11  4  0  0  0  0
 11 12  1  0  0  0  0
 12 13  4  0  0  0  0
 13 14  4  0  0  0  0
 14 15  4  0  0  0  0
 15 16  4  0  0  0  0
 12 16  4  0  0  0  0
 16 17  1  0  0  0  0
 17 18  2  0  0  0  0
 17 19  1  0  0  0  0
 19 20  4  0  0  0  0
 20 21  4  0  0  0  0
 21 22  4  0  0  0  0
 22 23  4  0  0  0  0
 23 24  4  0  0  0  0
 19 24  4  0  0  0  0
 24 25  1  0  0  0  0
 15 25  1  0  0  0  0
 25 26  2  0  0  0  0
 11 27  4  0  0  0  0
 27 28  4  0  0  0  0
  8 28  4  0  0  0  0
  7 29  4  0  0  0  0
  3 29  4  0  0  0  0
M  END
> <IC50(uM)>
0.1

> <Outcome>
1.0

> <BindingDB ID>
51338193

> <BindingDB MonomerID>
50541667

> <BindingDB Ligand Name>
CHEMBL4649642

> <Curation/DataSource>
ChEMBL

> <Article DOI>
10.1021/acs.jmedchem.0c00512

> <PMID>
32496056

> <Patent Number>
?

> <Authors>
Zuo, Z; Liu, X; Qian, X; Zeng, T; Sang, N; Liu, H; Zhou, Y; Tao, L; Zhou, X; Su, N; Yu, Y; Chen, Q; Luo, Y; Zhao, Y

> <Link to Ligand in BindingDB>
http://www.bindingdb.org/bind/chemsearch/marvin/MolStructure.jsp?monomerid=50541667

> <Link to Ligand-Target Pair in BindingDB>
http://www.bindingdb.org/jsp/dbsearch/PrimarySearch_ki.jsp?energyterm=kJ/mole&tag=r21&monomerid=50541667&enzyme=Dihydroorotate+dehydrogenase&column=ki&startPg=0&Increment=50&submit=Search

> <PubChem CID>
156022178

> <PubChem SID>
442143230

$$$$

  Mrv2115 07222212352D          

 26 28  0  0  0  0            999 V2000
   -2.1434   -0.4125    0.0000 C   0  0  0  0  0  0  0  0  0  0  0  0
   -2.1434   -1.2375    0.0000 C   0  0  0  0  0  0  0  0  0  0  0  0
   -2.8579   -1.6500    0.0000 O   0  0  0  0  0  0  0  0  0  0  0  0
   -2.8579   -2.4750    0.0000 C   0  0  0  0  0  0  0  0  0  0  0  0
   -2.1434   -2.8875    0.0000 C   0  0  0  0  0  0  0  0  0  0  0  0
   -2.1434   -3.7125    0.0000 C   0  0  0  0  0  0  0  0  0  0  0  0
   -2.8579   -4.1250    0.0000 C   0  0  0  0  0  0  0  0  0  0  0  0
   -3.5724   -3.7125    0.0000 C   0  0  0  0  0  0  0  0  0  0  0  0
   -4.2868   -4.1250    0.0000 C   0  0  0  0  0  0  0  0  0  0  0  0
   -5.0013   -3.7125    0.0000 C   0  0  0  0  0  0  0  0  0  0  0  0
   -5.7158   -4.1250    0.0000 C   0  0  0  0  0  0  0  0  0  0  0  0
   -5.7158   -4.9500    0.0000 C   0  0  0  0  0  0  0  0  0  0  0  0
   -6.4302   -5.3625    0.0000 N   0  0  0  0  0  0  0  0  0  0  0  0
   -6.4302   -6.1875    0.0000 C   0  0  0  0  0  0  0  0  0  0  0  0
   -5.7158   -6.6000    0.0000 C   0  0  0  0  0  0  0  0  0  0  0  0
   -5.7158   -7.4250    0.0000 C   0  0  0  0  0  0  0  0  0  0  0  0
   -6.4302   -7.8375    0.0000 C   0  0  0  0  0  0  0  0  0  0  0  0
   -6.4302   -8.6625    0.0000 C   0  0  0  0  0  0  0  0  0  0  0  0
   -7.1447   -7.4250    0.0000 C   0  0  0  0  0  0  0  0  0  0  0  0
   -7.1447   -6.6000    0.0000 C   0  0  0  0  0  0  0  0  0  0  0  0
   -7.8592   -6.1875    0.0000 C   0  0  0  0  0  0  0  0  0  0  0  0
   -7.8592   -5.3625    0.0000 O   0  0  0  0  0  0  0  0  0  0  0  0
   -8.5737   -6.6000    0.0000 O   0  0  0  0  0  0  0  0  0  0  0  0
   -5.0013   -5.3625    0.0000 C   0  0  0  0  0  0  0  0  0  0  0  0
   -4.2868   -4.9500    0.0000 N   0  0  0  0  0  0  0  0  0  0  0  0
   -3.5724   -2.8875    0.0000 C   0  0  0  0  0  0  0  0  0  0  0  0
  1  2  1  0  0  0  0
  2  3  1  0  0  0  0
  3  4  1  0  0  0  0
  4  5  4  0  0  0  0
  5  6  4  0  0  0  0
  6  7  4  0  0  0  0
  7  8  4  0  0  0  0
  8  9  1  0  0  0  0
  9 10  4  0  0  0  0
 10 11  4  0  0  0  0
 11 12  4  0  0  0  0
 12 13  1  0  0  0  0
 13 14  1  0  0  0  0
 14 15  4  0  0  0  0
 15 16  4  0  0  0  0
 16 17  4  0  0  0  0
 17 18  1  0  0  0  0
 17 19  4  0  0  0  0
 19 20  4  0  0  0  0
 14 20  4  0  0  0  0
 20 21  1  0  0  0  0
 21 22  2  0  0  0  0
 21 23  1  0  0  0  0
 12 24  4  0  0  0  0
 24 25  4  0  0  0  0
  9 25  4  0  0  0  0
  8 26  4  0  0  0  0
  4 26  4  0  0  0  0
M  END
> <IC50(uM)>
0.19

> <Outcome>
1.0

> <BindingDB ID>
219990

> <BindingDB MonomerID>
102460

> <BindingDB Ligand Name>
US8536165, 41

> <Curation/DataSource>
US Patent

> <Article DOI>
?

> <PMID>
?

> <Patent Number>
US8536165

> <Authors>
Castro Palomino Laria, JC; Terricabras Belart, E; Erra Sola, M; Navarro Romero, E; Fonquerna Pou, S; Cardus Figueras, A; Lozoya Toribio, ME

> <Link to Ligand in BindingDB>
http://www.bindingdb.org/bind/chemsearch/marvin/MolStructure.jsp?monomerid=102460

> <Link to Ligand-Target Pair in BindingDB>
http://www.bindingdb.org/jsp/dbsearch/PrimarySearch_ki.jsp?energyterm=kJ/mole&tag=r21&monomerid=102460&enzyme=Dihydroorotate+dehydrogenase&column=ki&startPg=0&Increment=50&submit=Search

> <PubChem CID>
25187280

> <PubChem SID>
172097751

$$$$

  Mrv2115 07222212352D          

 26 29  0  0  0  0            999 V2000
   -0.1712   -0.6979    0.0000 C   0  0  0  0  0  0  0  0  0  0  0  0
    0.6538   -0.6979    0.0000 C   0  0  0  0  0  0  0  0  0  0  0  0
    1.1387   -0.0305    0.0000 N   0  0  0  0  0  0  0  0  0  0  0  0
    1.9233   -0.2854    0.0000 C   0  0  0  0  0  0  0  0  0  0  0  0
    2.6378    0.1271    0.0000 C   0  0  0  0  0  0  0  0  0  0  0  0
    2.6378    0.9521    0.0000 C   0  0  0  0  0  0  0  0  0  0  0  0
    3.3523    1.3646    0.0000 O   0  0  0  0  0  0  0  0  0  0  0  0
    1.9233    1.3646    0.0000 O   0  0  0  0  0  0  0  0  0  0  0  0
    3.3523   -0.2854    0.0000 C   0  0  0  0  0  0  0  0  0  0  0  0
    3.3523   -1.1104    0.0000 C   0  0  0  0  0  0  0  0  0  0  0  0
    4.0668   -1.5229    0.0000 C   0  0  0  0  0  0  0  0  0  0  0  0
    4.7812   -1.1104    0.0000 C   0  0  0  0  0  0  0  0  0  0  0  0
    5.4957   -1.5229    0.0000 C   0  0  0  0  0  0  0  0  0  0  0  0
    5.4957   -2.3479    0.0000 C   0  0  0  0  0  0  0  0  0  0  0  0
    6.2102   -2.7604    0.0000 C   0  0  0  0  0  0  0  0  0  0  0  0
    6.9246   -2.3479    0.0000 C   0  0  0  0  0  0  0  0  0  0  0  0
    7.6391   -2.7604    0.0000 C   0  0  0  0  0  0  0  0  0  0  0  0
    7.6391   -3.5854    0.0000 C   0  0  0  0  0  0  0  0  0  0  0  0
    6.9246   -3.9979    0.0000 C   0  0  0  0  0  0  0  0  0  0  0  0
    6.2102   -3.5854    0.0000 C   0  0  0  0  0  0  0  0  0  0  0  0
    5.4957   -3.9979    0.0000 F   0  0  0  0  0  0  0  0  0  0  0  0
    4.7812   -2.7604    0.0000 C   0  0  0  0  0  0  0  0  0  0  0  0
    4.0668   -2.3479    0.0000 C   0  0  0  0  0  0  0  0  0  0  0  0
    2.6378   -1.5229    0.0000 C   0  0  0  0  0  0  0  0  0  0  0  0
    1.9233   -1.1104    0.0000 C   0  0  0  0  0  0  0  0  0  0  0  0
    1.1387   -1.3654    0.0000 N   0  0  0  0  0  0  0  0  0  0  0  0
  1  2  1  0  0  0  0
  2  3  4  0  0  0  0
  3  4  4  0  0  0  0
  4  5  4  0  0  0  0
  5  6  1  0  0  0  0
  6  7  2  0  0  0  0
  6  8  1  0  0  0  0
  5  9  4  0  0  0  0
  9 10  4  0  0  0  0
 10 11  1  0  0  0  0
 11 12  4  0  0  0  0
 12 13  4  0  0  0  0
 13 14  4  0  0  0  0
 14 15  1  0  0  0  0
 15 16  4  0  0  0  0
 16 17  4  0  0  0  0
 17 18  4  0  0  0  0
 18 19  4  0  0  0  0
 19 20  4  0  0  0  0
 15 20  4  0  0  0  0
 20 21  1  0  0  0  0
 14 22  4  0  0  0  0
 22 23  4  0  0  0  0
 11 23  4  0  0  0  0
 10 24  4  0  0  0  0
 24 25  4  0  0  0  0
  4 25  4  0  0  0  0
 25 26  4  0  0  0  0
  2 26  4  0  0  0  0
M  STY  1   1 DAT
M  SAL   1  1  26
M  SDT   1 MRV_IMPLICIT_H                                        
M  SDD   1     0.5304   -0.4125    DR    ALL  0       0  
M  SED   1 IMPL_H1
M  END
> <IC50(uM)>
0.055

> <Outcome>
1.0

> <BindingDB ID>
1045584

> <BindingDB MonomerID>
501642

> <BindingDB Ligand Name>
US11028054, Example 5

> <Curation/DataSource>
US Patent

> <Article DOI>
?

> <PMID>
?

> <Patent Number>
US11028054

> <Authors>
Thunuguntla, SS; Hosahalli, S; Panigrahi, SK; Schwarz, M; Arit, M

> <Link to Ligand in BindingDB>
http://www.bindingdb.org/bind/chemsearch/marvin/MolStructure.jsp?monomerid=501642

> <Link to Ligand-Target Pair in BindingDB>
http://www.bindingdb.org/jsp/dbsearch/PrimarySearch_ki.jsp?energyterm=kJ/mole&tag=r21&monomerid=501642&enzyme=Dihydroorotate+dehydrogenase&column=ki&startPg=0&Increment=50&submit=Search

> <PubChem CID>
?

> <PubChem SID>
?

$$$$

  Mrv2115 07222212352D          

 35 37  0  0  0  0            999 V2000
    0.7145   -3.7125    0.0000 C   0  0  0  0  0  0  0  0  0  0  0  0
    1.4289   -4.1250    0.0000 C   0  0  0  0  0  0  0  0  0  0  0  0
    2.1434   -3.7125    0.0000 C   0  0  0  0  0  0  0  0  0  0  0  0
    2.8579   -4.1250    0.0000 C   0  0  0  0  0  0  0  0  0  0  0  0
    2.8579   -4.9500    0.0000 C   0  0  0  0  0  0  0  0  0  0  0  0
    3.5724   -3.7125    0.0000 O   0  0  0  0  0  0  0  0  0  0  0  0
    3.5724   -2.8875    0.0000 C   0  0  0  0  0  0  0  0  0  0  0  0
    2.8579   -2.4750    0.0000 C   0  0  0  0  0  0  0  0  0  0  0  0
    2.8579   -1.6500    0.0000 C   0  0  0  0  0  0  0  0  0  0  0  0
    2.1434   -1.2375    0.0000 N   0  0  0  0  0  0  0  0  0  0  0  0
    1.3897   -1.5731    0.0000 N   0  0  0  0  0  0  0  0  0  0  0  0
    0.8377   -0.9600    0.0000 C   0  0  0  0  0  0  0  0  0  0  0  0
    0.0172   -1.0462    0.0000 C   0  0  0  0  0  0  0  0  0  0  0  0
   -0.4677   -0.3788    0.0000 C   0  0  0  0  0  0  0  0  0  0  0  0
   -0.3183   -1.7999    0.0000 O   0  0  0  0  0  0  0  0  0  0  0  0
    1.2502   -0.2455    0.0000 N   0  0  0  0  0  0  0  0  0  0  0  0
    0.9146    0.5082    0.0000 C   0  0  0  0  0  0  0  0  0  0  0  0
    2.0572   -0.4170    0.0000 C   0  0  0  0  0  0  0  0  0  0  0  0
    2.6703    0.1350    0.0000 O   0  0  0  0  0  0  0  0  0  0  0  0
    3.5724   -1.2375    0.0000 C   0  0  0  0  0  0  0  0  0  0  0  0
    3.5724   -0.4125    0.0000 F   0  0  0  0  0  0  0  0  0  0  0  0
    4.2868   -1.6500    0.0000 C   0  0  0  0  0  0  0  0  0  0  0  0
    4.2868   -2.4750    0.0000 C   0  0  0  0  0  0  0  0  0  0  0  0
    5.0013   -2.8875    0.0000 C   0  0  0  0  0  0  0  0  0  0  0  0
    5.7158   -2.4750    0.0000 O   0  0  0  0  0  0  0  0  0  0  0  0
    5.0013   -3.7125    0.0000 N   0  0  0  0  0  0  0  0  0  0  0  0
    5.7158   -4.1250    0.0000 C   0  0  0  0  0  0  0  0  0  0  0  0
    6.4302   -3.7125    0.0000 C   0  0  0  0  0  0  0  0  0  0  0  0
    6.4302   -2.8875    0.0000 C   0  0  0  0  0  0  0  0  0  0  0  0
    7.1447   -4.1250    0.0000 C   0  0  0  0  0  0  0  0  0  0  0  0
    7.1447   -4.9500    0.0000 C   0  0  0  0  0  0  0  0  0  0  0  0
    6.4302   -5.3625    0.0000 N   0  0  0  0  0  0  0  0  0  0  0  0
    5.7158   -4.9500    0.0000 C   0  0  0  0  0  0  0  0  0  0  0  0
    5.0013   -5.3625    0.0000 O   0  0  0  0  0  0  0  0  0  0  0  0
    4.2868   -4.9500    0.0000 C   0  0  0  0  0  0  0  0  0  0  0  0
  1  2  1  0  0  0  0
  2  3  1  0  0  0  0
  3  4  1  0  0  0  0
  4  5  1  0  0  0  0
  4  6  1  0  0  0  0
  6  7  1  0  0  0  0
  7  8  4  0  0  0  0
  8  9  4  0  0  0  0
  9 10  1  0  0  0  0
 10 11  4  0  0  0  0
 11 12  4  0  0  0  0
 12 13  1  0  0  0  0
 13 14  1  0  0  0  0
 13 15  1  0  0  0  0
 12 16  4  0  0  0  0
 16 17  1  0  0  0  0
 16 18  4  0  0  0  0
 10 18  4  0  0  0  0
 18 19  2  0  0  0  0
  9 20  4  0  0  0  0
 20 21  1  0  0  0  0
 20 22  4  0  0  0  0
 22 23  4  0  0  0  0
  7 23  4  0  0  0  0
 23 24  1  0  0  0  0
 24 25  2  0  0  0  0
 24 26  1  0  0  0  0
 26 27  1  0  0  0  0
 27 28  4  0  0  0  0
 28 29  1  0  0  0  0
 28 30  4  0  0  0  0
 30 31  4  0  0  0  0
 31 32  4  0  0  0  0
 32 33  4  0  0  0  0
 27 33  4  0  0  0  0
 33 34  1  0  0  0  0
 34 35  1  0  0  0  0
M  END
> <IC50(uM)>
0.023

> <Outcome>
1.0

> <BindingDB ID>
1098751; 972597

> <BindingDB MonomerID>
470476

> <BindingDB Ligand Name>
5-fluoro-4-{3-[(1S)-1-hydroxyethyl]-4-methyl-5-oxo-4,5-dihydro-1H-1,2,4-triazol-1-yl}-N-(2-methoxy-4-methylpyridin-3-yl)-2-[(2S)-pentan-2-yloxy]benzamide::US10815215, Example 139::US11130745, Example 139; 5-fluoro-4-{3-[(1S)-1-hydroxyethyl]-4-methyl-5-oxo-4,5-dihydro-1H-1,2,4-triazol-1-yl}-N-(2-methoxy-4-methylpyridin-3-yl)-2-[(2S)-pentan-2-yloxy]benzamide::US10815215, Example 139

> <Curation/DataSource>
US Patent

> <Article DOI>
?

> <PMID>
?

> <Patent Number>
US11130745; US10815215

> <Authors>
Gradl, SN; Nguyen, D; Eis, K; Gunther, J; Stellfeld, T; Janzer, A; Christian, S; Muller, T; Sheikh, SE; Sykes, DB; Ferrara, SJ; Krober, M; Merz, C; Niehues, M; Schafer, M; Zimmermann, K; Nising, CF; Gradl, SN; Nguyen, D; Eis, K; Gunther, J; Stellfeld, T; Janzer, A; Christian, S; Muller, T; Sheikh, SE; Zhou, HJ; Zhao, C; Sykes, DB; Ferrara, SJ; Liu, K; Krober, M; Merz, C; Niehues, M; Schafer, M; Zimmermann, K; Nising, CF

> <Link to Ligand in BindingDB>
http://www.bindingdb.org/bind/chemsearch/marvin/MolStructure.jsp?monomerid=470476

> <Link to Ligand-Target Pair in BindingDB>
http://www.bindingdb.org/jsp/dbsearch/PrimarySearch_ki.jsp?energyterm=kJ/mole&tag=r21&monomerid=470476&enzyme=Dihydroorotate+dehydrogenase&column=ki&startPg=0&Increment=50&submit=Search

> <PubChem CID>
134469903

> <PubChem SID>
441609653

$$$$

  Mrv2115 07222212352D          

 33 35  0  0  0  0            999 V2000
    2.1434   -3.7125    0.0000 C   0  0  0  0  0  0  0  0  0  0  0  0
    2.8579   -4.1250    0.0000 C   0  0  0  0  0  0  0  0  0  0  0  0
    3.5724   -3.7125    0.0000 C   0  0  0  0  0  0  0  0  0  0  0  0
    4.2868   -4.1250    0.0000 C   0  0  0  0  0  0  0  0  0  0  0  0
    4.2868   -4.9500    0.0000 C   0  0  0  0  0  0  0  0  0  0  0  0
    5.0013   -3.7125    0.0000 O   0  0  0  0  0  0  0  0  0  0  0  0
    5.0013   -2.8875    0.0000 C   0  0  0  0  0  0  0  0  0  0  0  0
    4.2868   -2.4750    0.0000 C   0  0  0  0  0  0  0  0  0  0  0  0
    4.2868   -1.6500    0.0000 C   0  0  0  0  0  0  0  0  0  0  0  0
    3.5724   -1.2375    0.0000 N   0  0  0  0  0  0  0  0  0  0  0  0
    2.8187   -1.5731    0.0000 N   0  0  0  0  0  0  0  0  0  0  0  0
    2.2666   -0.9600    0.0000 C   0  0  0  0  0  0  0  0  0  0  0  0
    1.4462   -1.0462    0.0000 C   0  0  0  0  0  0  0  0  0  0  0  0
    1.1106   -1.7999    0.0000 C   0  0  0  0  0  0  0  0  0  0  0  0
    2.6791   -0.2455    0.0000 N   0  0  0  0  0  0  0  0  0  0  0  0
    2.3436    0.5082    0.0000 C   0  0  0  0  0  0  0  0  0  0  0  0
    3.4861   -0.4170    0.0000 C   0  0  0  0  0  0  0  0  0  0  0  0
    4.0992    0.1350    0.0000 O   0  0  0  0  0  0  0  0  0  0  0  0
    5.0013   -1.2375    0.0000 C   0  0  0  0  0  0  0  0  0  0  0  0
    5.0013   -0.4125    0.0000 F   0  0  0  0  0  0  0  0  0  0  0  0
    5.7158   -1.6500    0.0000 C   0  0  0  0  0  0  0  0  0  0  0  0
    5.7158   -2.4750    0.0000 C   0  0  0  0  0  0  0  0  0  0  0  0
    6.4302   -2.8875    0.0000 C   0  0  0  0  0  0  0  0  0  0  0  0
    6.4302   -3.7125    0.0000 O   0  0  0  0  0  0  0  0  0  0  0  0
    7.1447   -2.4750    0.0000 N   0  0  0  0  0  0  0  0  0  0  0  0
    7.8592   -2.8875    0.0000 C   0  0  0  0  0  0  0  0  0  0  0  0
    8.5737   -2.4750    0.0000 C   0  0  0  0  0  0  0  0  0  0  0  0
    9.2881   -2.8875    0.0000 C   0  0  0  0  0  0  0  0  0  0  0  0
    9.2881   -3.7125    0.0000 C   0  0  0  0  0  0  0  0  0  0  0  0
    8.5737   -4.1250    0.0000 C   0  0  0  0  0  0  0  0  0  0  0  0
    8.5737   -4.9500    0.0000 N   0  0  0  0  0  0  0  0  0  0  0  0
    7.8592   -3.7125    0.0000 C   0  0  0  0  0  0  0  0  0  0  0  0
    7.1447   -4.1250    0.0000 C   0  0  0  0  0  0  0  0  0  0  0  0
  1  2  1  0  0  0  0
  2  3  1  0  0  0  0
  3  4  1  0  0  0  0
  4  5  1  0  0  0  0
  4  6  1  0  0  0  0
  6  7  1  0  0  0  0
  7  8  4  0  0  0  0
  8  9  4  0  0  0  0
  9 10  1  0  0  0  0
 10 11  4  0  0  0  0
 11 12  4  0  0  0  0
 12 13  1  0  0  0  0
 13 14  1  0  0  0  0
 12 15  4  0  0  0  0
 15 16  1  0  0  0  0
 15 17  4  0  0  0  0
 10 17  4  0  0  0  0
 17 18  2  0  0  0  0
  9 19  4  0  0  0  0
 19 20  1  0  0  0  0
 19 21  4  0  0  0  0
 21 22  4  0  0  0  0
  7 22  4  0  0  0  0
 22 23  1  0  0  0  0
 23 24  2  0  0  0  0
 23 25  1  0  0  0  0
 25 26  1  0  0  0  0
 26 27  4  0  0  0  0
 27 28  4  0  0  0  0
 28 29  4  0  0  0  0
 29 30  4  0  0  0  0
 30 31  1  0  0  0  0
 30 32  4  0  0  0  0
 26 32  4  0  0  0  0
 32 33  1  0  0  0  0
M  END
> <IC50(uM)>
0.0086

> <Outcome>
1.0

> <BindingDB ID>
972477; 1098632; 972478; 1098631

> <BindingDB MonomerID>
470365

> <BindingDB Ligand Name>
N-(3-amino-2-methylphenyl)-4-(3-ethyl-4-methyl-5-oxo-4,5-dihydro-1H-1,2,4-triazol-1-yl)-5-fluoro-2-[(2S)-pentan-2-yloxy]benzamide::US10815215, Example 24; N-(3-amino-2-methylphenyl)-4-(3-ethyl-4-methyl-5-oxo-4,5-dihydro-1H-1,2,4-triazol-1-yl)-5-fluoro-2-[(2S)-pentan-2-yloxy]benzamide::US10815215, Example 24::US11130745, Example 24

> <Curation/DataSource>
US Patent

> <Article DOI>
?

> <PMID>
?

> <Patent Number>
US10815215; US11130745

> <Authors>
Gradl, SN; Nguyen, D; Eis, K; Gunther, J; Stellfeld, T; Janzer, A; Christian, S; Muller, T; Sheikh, SE; Zhou, HJ; Zhao, C; Sykes, DB; Ferrara, SJ; Liu, K; Krober, M; Merz, C; Niehues, M; Schafer, M; Zimmermann, K; Nising, CF; Gradl, SN; Nguyen, D; Eis, K; Gunther, J; Stellfeld, T; Janzer, A; Christian, S; Muller, T; Sheikh, SE; Sykes, DB; Ferrara, SJ; Krober, M; Merz, C; Niehues, M; Schafer, M; Zimmermann, K; Nising, CF

> <Link to Ligand in BindingDB>
http://www.bindingdb.org/bind/chemsearch/marvin/MolStructure.jsp?monomerid=470365

> <Link to Ligand-Target Pair in BindingDB>
http://www.bindingdb.org/jsp/dbsearch/PrimarySearch_ki.jsp?energyterm=kJ/mole&tag=r21&monomerid=470365&enzyme=Dihydroorotate+dehydrogenase&column=ki&startPg=0&Increment=50&submit=Search

> <PubChem CID>
134469883

> <PubChem SID>
441609542

$$$$

  Mrv2115 07222212352D          

 31 35  0  0  0  0            999 V2000
    3.9849    2.7770    0.0000 O   0  0  0  0  0  0  0  0  0  0  0  0
    3.9849    1.9520    0.0000 C   0  0  0  0  0  0  0  0  0  0  0  0
    3.2704    1.5395    0.0000 O   0  0  0  0  0  0  0  0  0  0  0  0
    4.6993    1.5395    0.0000 C   0  0  0  0  0  0  0  0  0  0  0  0
    4.6993    0.7145    0.0000 C   0  0  0  0  0  0  0  0  0  0  0  0
    5.4138    0.3020    0.0000 C   0  0  0  0  0  0  0  0  0  0  0  0
    5.4138   -0.5230    0.0000 C   0  0  0  0  0  0  0  0  0  0  0  0
    5.8263   -1.2375    0.0000 C   0  0  0  0  0  0  0  0  0  0  0  0
    5.0013   -1.2375    0.0000 C   0  0  0  0  0  0  0  0  0  0  0  0
    6.1283    0.7145    0.0000 C   0  0  0  0  0  0  0  0  0  0  0  0
    6.1283    1.5395    0.0000 C   0  0  0  0  0  0  0  0  0  0  0  0
    5.4138    1.9520    0.0000 C   0  0  0  0  0  0  0  0  0  0  0  0
    5.4138    2.7770    0.0000 N   0  0  0  0  0  0  0  0  0  0  0  0
    6.1283    3.1895    0.0000 C   0  0  0  0  0  0  0  0  0  0  0  0
    6.1283    4.0145    0.0000 C   0  0  0  0  0  0  0  0  0  0  0  0
    6.8427    4.4270    0.0000 N   0  0  0  0  0  0  0  0  0  0  0  0
    7.5572    4.0145    0.0000 C   0  0  0  0  0  0  0  0  0  0  0  0
    8.2717    4.4270    0.0000 C   0  0  0  0  0  0  0  0  0  0  0  0
    8.2717    5.2520    0.0000 C   0  0  0  0  0  0  0  0  0  0  0  0
    8.9862    5.6645    0.0000 C   0  0  0  0  0  0  0  0  0  0  0  0
    9.7006    5.2520    0.0000 C   0  0  0  0  0  0  0  0  0  0  0  0
    9.7006    4.4270    0.0000 C   0  0  0  0  0  0  0  0  0  0  0  0
    8.9862    4.0145    0.0000 C   0  0  0  0  0  0  0  0  0  0  0  0
    7.5572    3.1895    0.0000 C   0  0  0  0  0  0  0  0  0  0  0  0
    8.2717    2.7770    0.0000 C   0  0  0  0  0  0  0  0  0  0  0  0
    8.9862    3.1895    0.0000 C   0  0  0  0  0  0  0  0  0  0  0  0
    9.7006    2.7770    0.0000 C   0  0  0  0  0  0  0  0  0  0  0  0
    9.7006    1.9520    0.0000 C   0  0  0  0  0  0  0  0  0  0  0  0
    8.9862    1.5395    0.0000 C   0  0  0  0  0  0  0  0  0  0  0  0
    8.2717    1.9520    0.0000 C   0  0  0  0  0  0  0  0  0  0  0  0
    6.8427    2.7770    0.0000 C   0  0  0  0  0  0  0  0  0  0  0  0
  1  2  2  0  0  0  0
  2  3  1  0  0  0  0
  2  4  1  0  0  0  0
  4  5  4  0  0  0  0
  5  6  4  0  0  0  0
  6  7  1  0  0  0  0
  7  8  1  0  0  0  0
  8  9  1  0  0  0  0
  7  9  1  0  0  0  0
  6 10  4  0  0  0  0
 10 11  4  0  0  0  0
 11 12  4  0  0  0  0
  4 12  4  0  0  0  0
 12 13  1  0  0  0  0
 13 14  1  0  0  0  0
 14 15  4  0  0  0  0
 15 16  4  0  0  0  0
 16 17  4  0  0  0  0
 17 18  1  0  0  0  0
 18 19  4  0  0  0  0
 19 20  4  0  0  0  0
 20 21  4  0  0  0  0
 21 22  4  0  0  0  0
 22 23  4  0  0  0  0
 18 23  4  0  0  0  0
 17 24  4  0  0  0  0
 24 25  1  0  0  0  0
 25 26  4  0  0  0  0
 26 27  4  0  0  0  0
 27 28  4  0  0  0  0
 28 29  4  0  0  0  0
 29 30  4  0  0  0  0
 25 30  4  0  0  0  0
 24 31  4  0  0  0  0
 14 31  4  0  0  0  0
M  END
> <IC50(uM)>
0.01

> <Outcome>
1.0

> <BindingDB ID>
219984

> <BindingDB MonomerID>
102454

> <BindingDB Ligand Name>
US8536165, 19

> <Curation/DataSource>
US Patent

> <Article DOI>
?

> <PMID>
?

> <Patent Number>
US8536165

> <Authors>
Castro Palomino Laria, JC; Terricabras Belart, E; Erra Sola, M; Navarro Romero, E; Fonquerna Pou, S; Cardus Figueras, A; Lozoya Toribio, ME

> <Link to Ligand in BindingDB>
http://www.bindingdb.org/bind/chemsearch/marvin/MolStructure.jsp?monomerid=102454

> <Link to Ligand-Target Pair in BindingDB>
http://www.bindingdb.org/jsp/dbsearch/PrimarySearch_ki.jsp?energyterm=kJ/mole&tag=r21&monomerid=102454&enzyme=Dihydroorotate+dehydrogenase&column=ki&startPg=0&Increment=50&submit=Search

> <PubChem CID>
46847429

> <PubChem SID>
172097745

$$$$

  Mrv2115 07222212352D          

 31 35  0  0  0  0            999 V2000
    3.9934    2.4750    0.0000 N   0  0  0  0  0  0  0  0  0  0  0  0
    3.2789    2.0625    0.0000 C   0  0  0  0  0  0  0  0  0  0  0  0
    2.5645    2.4750    0.0000 O   0  0  0  0  0  0  0  0  0  0  0  0
    3.2789    1.2375    0.0000 C   0  0  0  0  0  0  0  0  0  0  0  0
    3.9934    0.8250    0.0000 C   0  0  0  0  0  0  0  0  0  0  0  0
    3.9934    0.0000    0.0000 C   0  0  0  0  0  0  0  0  0  0  0  0
    3.2789   -0.4125    0.0000 C   0  0  0  0  0  0  0  0  0  0  0  0
    2.5645    0.0000    0.0000 C   0  0  0  0  0  0  0  0  0  0  0  0
    1.7798   -0.2549    0.0000 N   0  0  0  0  0  0  0  0  0  0  0  0
    1.2949    0.4125    0.0000 C   0  0  0  0  0  0  0  0  0  0  0  0
    0.4699    0.4125    0.0000 C   0  0  0  0  0  0  0  0  0  0  0  0
    0.0574   -0.3020    0.0000 C   0  0  0  0  0  0  0  0  0  0  0  0
   -0.7676   -0.3020    0.0000 C   0  0  0  0  0  0  0  0  0  0  0  0
   -1.1801    0.4125    0.0000 C   0  0  0  0  0  0  0  0  0  0  0  0
   -2.0051    0.4125    0.0000 C   0  0  0  0  0  0  0  0  0  0  0  0
   -2.4176   -0.3020    0.0000 C   0  0  0  0  0  0  0  0  0  0  0  0
   -3.2426   -0.3020    0.0000 N   0  0  0  0  0  0  0  0  0  0  0  0
   -3.6551    0.4125    0.0000 C   0  0  0  0  0  0  0  0  0  0  0  0
   -3.2426    1.1270    0.0000 C   0  0  0  0  0  0  0  0  0  0  0  0
   -3.6551    1.8414    0.0000 C   0  0  0  0  0  0  0  0  0  0  0  0
   -4.4801    1.8414    0.0000 O   0  0  0  0  0  0  0  0  0  0  0  0
   -3.2426    2.5559    0.0000 N   0  0  0  0  0  0  0  0  0  0  0  0
   -3.5781    3.3096    0.0000 C   0  0  0  0  0  0  0  0  0  0  0  0
   -2.9651    3.8616    0.0000 C   0  0  0  0  0  0  0  0  0  0  0  0
   -2.2506    3.4491    0.0000 C   0  0  0  0  0  0  0  0  0  0  0  0
   -2.4221    2.6421    0.0000 C   0  0  0  0  0  0  0  0  0  0  0  0
   -2.4176    1.1270    0.0000 C   0  0  0  0  0  0  0  0  0  0  0  0
   -0.7676    1.1270    0.0000 C   0  0  0  0  0  0  0  0  0  0  0  0
    0.0574    1.1270    0.0000 C   0  0  0  0  0  0  0  0  0  0  0  0
    1.7798    1.0799    0.0000 N   0  0  0  0  0  0  0  0  0  0  0  0
    2.5645    0.8250    0.0000 C   0  0  0  0  0  0  0  0  0  0  0  0
  1  2  1  0  0  0  0
  2  3  2  0  0  0  0
  2  4  1  0  0  0  0
  4  5  4  0  0  0  0
  5  6  4  0  0  0  0
  6  7  4  0  0  0  0
  7  8  4  0  0  0  0
  8  9  4  0  0  0  0
  9 10  4  0  0  0  0
 10 11  1  0  0  0  0
 11 12  4  0  0  0  0
 12 13  4  0  0  0  0
 13 14  4  0  0  0  0
 14 15  1  0  0  0  0
 15 16  4  0  0  0  0
 16 17  4  0  0  0  0
 17 18  4  0  0  0  0
 18 19  4  0  0  0  0
 19 20  1  0  0  0  0
 20 21  2  0  0  0  0
 20 22  1  0  0  0  0
 22 23  1  0  0  0  0
 23 24  1  0  0  0  0
 24 25  1  0  0  0  0
 25 26  1  0  0  0  0
 22 26  1  0  0  0  0
 19 27  4  0  0  0  0
 15 27  4  0  0  0  0
 14 28  4  0  0  0  0
 28 29  4  0  0  0  0
 11 29  4  0  0  0  0
 10 30  4  0  0  0  0
 30 31  4  0  0  0  0
  4 31  4  0  0  0  0
  8 31  4  0  0  0  0
M  STY  1   1 DAT
M  SAL   1  1   9
M  SDT   1 MRV_IMPLICIT_H                                        
M  SDD   1     0.5304   -0.4125    DR    ALL  0       0  
M  SED   1 IMPL_H1
M  END
> <IC50(uM)>
28.0

> <Outcome>
0.0

> <BindingDB ID>
50358214

> <BindingDB MonomerID>
50096204

> <BindingDB Ligand Name>
CHEMBL3593813

> <Curation/DataSource>
ChEMBL

> <Article DOI>
10.1016/j.bmc.2015.05.051

> <PMID>
26088338

> <Patent Number>
?

> <Authors>
Abdullah, I; Chee, CF; Lee, YK; Thunuguntla, SS; Satish Reddy, K; Nellore, K; Antony, T; Verma, J; Mun, KW; Othman, S; Subramanya, H; Rahman, NA

> <Link to Ligand in BindingDB>
http://www.bindingdb.org/bind/chemsearch/marvin/MolStructure.jsp?monomerid=50096204

> <Link to Ligand-Target Pair in BindingDB>
http://www.bindingdb.org/jsp/dbsearch/PrimarySearch_ki.jsp?energyterm=kJ/mole&tag=r21&monomerid=50096204&enzyme=Dihydroorotate+dehydrogenase&column=ki&startPg=0&Increment=50&submit=Search

> <PubChem CID>
122182188

> <PubChem SID>
103993771

$$$$

  Mrv2115 07222212352D          

 26 29  0  0  0  0            999 V2000
    4.0668    2.3479    0.0000 C   0  0  0  0  0  0  0  0  0  0  0  0
    3.3523    1.9354    0.0000 C   0  0  0  0  0  0  0  0  0  0  0  0
    3.3523    1.1104    0.0000 C   0  0  0  0  0  0  0  0  0  0  0  0
    2.6378    0.6979    0.0000 C   0  0  0  0  0  0  0  0  0  0  0  0
    2.6378   -0.1271    0.0000 C   0  0  0  0  0  0  0  0  0  0  0  0
    1.9233   -0.5396    0.0000 O   0  0  0  0  0  0  0  0  0  0  0  0
    3.3523   -0.5396    0.0000 O   0  0  0  0  0  0  0  0  0  0  0  0
    1.9233    1.1104    0.0000 C   0  0  0  0  0  0  0  0  0  0  0  0
    1.1387    0.8555    0.0000 N   0  0  0  0  0  0  0  0  0  0  0  0
    0.6538    1.5229    0.0000 C   0  0  0  0  0  0  0  0  0  0  0  0
   -0.1712    1.5229    0.0000 C   0  0  0  0  0  0  0  0  0  0  0  0
   -0.5837    0.8085    0.0000 C   0  0  0  0  0  0  0  0  0  0  0  0
   -1.4087    0.8085    0.0000 C   0  0  0  0  0  0  0  0  0  0  0  0
   -1.8212    1.5229    0.0000 C   0  0  0  0  0  0  0  0  0  0  0  0
   -2.6462    1.5229    0.0000 O   0  0  0  0  0  0  0  0  0  0  0  0
   -3.0587    2.2374    0.0000 C   0  0  0  0  0  0  0  0  0  0  0  0
   -3.8837    2.2374    0.0000 C   0  0  0  0  0  0  0  0  0  0  0  0
   -4.2962    2.9519    0.0000 C   0  0  0  0  0  0  0  0  0  0  0  0
   -3.8837    3.6664    0.0000 C   0  0  0  0  0  0  0  0  0  0  0  0
   -3.0587    3.6664    0.0000 C   0  0  0  0  0  0  0  0  0  0  0  0
   -2.6462    2.9519    0.0000 N   0  0  0  0  0  0  0  0  0  0  0  0
   -1.4087    2.2374    0.0000 C   0  0  0  0  0  0  0  0  0  0  0  0
   -0.5837    2.2374    0.0000 C   0  0  0  0  0  0  0  0  0  0  0  0
    1.1387    2.1904    0.0000 N   0  0  0  0  0  0  0  0  0  0  0  0
    1.9233    1.9354    0.0000 C   0  0  0  0  0  0  0  0  0  0  0  0
    2.6378    2.3479    0.0000 C   0  0  0  0  0  0  0  0  0  0  0  0
  1  2  1  0  0  0  0
  2  3  4  0  0  0  0
  3  4  4  0  0  0  0
  4  5  1  0  0  0  0
  5  6  2  0  0  0  0
  5  7  1  0  0  0  0
  4  8  4  0  0  0  0
  8  9  4  0  0  0  0
  9 10  4  0  0  0  0
 10 11  1  0  0  0  0
 11 12  4  0  0  0  0
 12 13  4  0  0  0  0
 13 14  4  0  0  0  0
 14 15  1  0  0  0  0
 15 16  1  0  0  0  0
 16 17  4  0  0  0  0
 17 18  4  0  0  0  0
 18 19  4  0  0  0  0
 19 20  4  0  0  0  0
 20 21  4  0  0  0  0
 16 21  4  0  0  0  0
 14 22  4  0  0  0  0
 22 23  4  0  0  0  0
 11 23  4  0  0  0  0
 10 24  4  0  0  0  0
 24 25  4  0  0  0  0
  8 25  4  0  0  0  0
 25 26  4  0  0  0  0
  2 26  4  0  0  0  0
M  STY  1   1 DAT
M  SAL   1  1  24
M  SDT   1 MRV_IMPLICIT_H                                        
M  SDD   1     0.5304   -0.4125    DR    ALL  0       0  
M  SED   1 IMPL_H1
M  END
> <IC50(uM)>
4.38

> <Outcome>
0.0

> <BindingDB ID>
297781

> <BindingDB MonomerID>
155437

> <BindingDB Ligand Name>
US9006454, I71

> <Curation/DataSource>
US Patent

> <Article DOI>
?

> <PMID>
?

> <Patent Number>
US9006454

> <Authors>
Thunuguntla, SS; Subramanya, H; Kunnam, SR; Sanivaru Vijay, SR; Bingi, C; Kusanur, R; Schwarz, M; Arlt, M

> <Link to Ligand in BindingDB>
http://www.bindingdb.org/bind/chemsearch/marvin/MolStructure.jsp?monomerid=155437

> <Link to Ligand-Target Pair in BindingDB>
http://www.bindingdb.org/jsp/dbsearch/PrimarySearch_ki.jsp?energyterm=kJ/mole&tag=r21&monomerid=155437&enzyme=Dihydroorotate+dehydrogenase&column=ki&startPg=0&Increment=50&submit=Search

> <PubChem CID>
46947377

> <PubChem SID>
253658374

$$$$

  Mrv2115 07222212352D          

 22 24  0  0  0  0            999 V2000
    4.0668    2.3479    0.0000 C   0  0  0  0  0  0  0  0  0  0  0  0
    3.3523    1.9354    0.0000 C   0  0  0  0  0  0  0  0  0  0  0  0
    3.3523    1.1104    0.0000 C   0  0  0  0  0  0  0  0  0  0  0  0
    2.6378    0.6979    0.0000 C   0  0  0  0  0  0  0  0  0  0  0  0
    2.6378   -0.1271    0.0000 N   0  0  0  0  0  0  0  0  0  0  0  0
    1.9233   -0.5396    0.0000 C   0  0  0  0  0  0  0  0  0  0  0  0
    1.9233   -1.3646    0.0000 C   0  0  0  0  0  0  0  0  0  0  0  0
    1.2089   -1.7771    0.0000 C   0  0  0  0  0  0  0  0  0  0  0  0
    0.4944   -1.3646    0.0000 C   0  0  0  0  0  0  0  0  0  0  0  0
   -0.2201   -1.7771    0.0000 Cl  0  0  0  0  0  0  0  0  0  0  0  0
    0.4944   -0.5396    0.0000 C   0  0  0  0  0  0  0  0  0  0  0  0
   -0.2201   -0.1271    0.0000 C   0  0  0  0  0  0  0  0  0  0  0  0
   -0.9345    0.2854    0.0000 F   0  0  0  0  0  0  0  0  0  0  0  0
    0.1924    0.5874    0.0000 F   0  0  0  0  0  0  0  0  0  0  0  0
   -0.6326   -0.8415    0.0000 F   0  0  0  0  0  0  0  0  0  0  0  0
    1.2089   -0.1271    0.0000 C   0  0  0  0  0  0  0  0  0  0  0  0
    1.9233    1.1104    0.0000 N   0  0  0  0  0  0  0  0  0  0  0  0
    1.1387    0.8555    0.0000 N   0  0  0  0  0  0  0  0  0  0  0  0
    0.6538    1.5229    0.0000 C   0  0  0  0  0  0  0  0  0  0  0  0
    1.1387    2.1904    0.0000 N   0  0  0  0  0  0  0  0  0  0  0  0
    1.9233    1.9354    0.0000 C   0  0  0  0  0  0  0  0  0  0  0  0
    2.6378    2.3479    0.0000 N   0  0  0  0  0  0  0  0  0  0  0  0
  1  2  1  0  0  0  0
  2  3  4  0  0  0  0
  3  4  4  0  0  0  0
  4  5  1  0  0  0  0
  5  6  1  0  0  0  0
  6  7  4  0  0  0  0
  7  8  4  0  0  0  0
  8  9  4  0  0  0  0
  9 10  1  0  0  0  0
  9 11  4  0  0  0  0
 11 12  1  0  0  0  0
 12 13  1  0  0  0  0
 12 14  1  0  0  0  0
 12 15  1  0  0  0  0
 11 16  4  0  0  0  0
  6 16  4  0  0  0  0
  4 17  4  0  0  0  0
 17 18  4  0  0  0  0
 18 19  4  0  0  0  0
 19 20  4  0  0  0  0
 20 21  4  0  0  0  0
 17 21  4  0  0  0  0
 21 22  4  0  0  0  0
  2 22  4  0  0  0  0
M  END
> <IC50(uM)>
100.0

> <Outcome>
0.0

> <BindingDB ID>
52450

> <BindingDB MonomerID>
28837

> <BindingDB Ligand Name>
N-[4-chloro-3-(trifluoromethyl)phenyl]-5-methyl-[1,2,4]triazolo[1,5-a]pyrimidin-7-amine::triazolopyrimidine-based compound, DSM124

> <Curation/DataSource>
Curated from the literature by BindingDB

> <Article DOI>
10.1021/jm801343r

> <PMID>
19296651

> <Patent Number>
?

> <Authors>
Gujjar, R; Marwaha, A; El Mazouni, F; White, J; White, KL; Creason, S; Shackleford, DM; Baldwin, J; Charman, WN; Buckner, FS; Charman, S; Rathod, PK; Phillips, MA

> <Link to Ligand in BindingDB>
http://www.bindingdb.org/bind/chemsearch/marvin/MolStructure.jsp?monomerid=28837

> <Link to Ligand-Target Pair in BindingDB>
http://www.bindingdb.org/jsp/dbsearch/PrimarySearch_ki.jsp?energyterm=kJ/mole&tag=r21&monomerid=28837&enzyme=Dihydroorotate+Dehydrogenase+%28DHODH%29&column=ki&startPg=0&Increment=50&submit=Search

> <PubChem CID>
7416167

> <PubChem SID>
58098025

$$$$

  Mrv2115 07222212352D          

 51 55  0  0  0  0            999 V2000
   -1.3502   -8.9582    0.0000 C   0  0  0  0  0  0  0  0  0  0  0  0
   -2.1604   -8.8023    0.0000 C   0  0  0  0  0  0  0  0  0  0  0  0
   -2.7004   -9.4260    0.0000 C   0  0  0  0  0  0  0  0  0  0  0  0
   -3.5106   -9.2700    0.0000 C   0  0  0  0  0  0  0  0  0  0  0  0
   -4.0507   -9.8937    0.0000 N   0  0  0  0  0  0  0  0  0  0  0  0
   -3.7806   -8.4905    0.0000 C   0  0  0  0  0  0  0  0  0  0  0  0
   -3.2405   -7.8668    0.0000 C   0  0  0  0  0  0  0  0  0  0  0  0
   -2.4304   -8.0228    0.0000 C   0  0  0  0  0  0  0  0  0  0  0  0
   -1.8903   -7.3991    0.0000 N   0  0  0  0  0  0  0  0  0  0  0  0
   -2.1604   -6.6196    0.0000 C   0  0  0  0  0  0  0  0  0  0  0  0
   -2.9705   -6.4637    0.0000 O   0  0  0  0  0  0  0  0  0  0  0  0
   -1.6203   -5.9959    0.0000 C   0  0  0  0  0  0  0  0  0  0  0  0
   -1.8903   -5.2164    0.0000 C   0  0  0  0  0  0  0  0  0  0  0  0
   -1.3502   -4.5927    0.0000 C   0  0  0  0  0  0  0  0  0  0  0  0
   -1.6203   -3.8132    0.0000 F   0  0  0  0  0  0  0  0  0  0  0  0
   -0.5401   -4.7486    0.0000 C   0  0  0  0  0  0  0  0  0  0  0  0
    0.0000   -4.1250    0.0000 N   0  0  0  0  0  0  0  0  0  0  0  0
    0.8101   -4.2809    0.0000 C   0  0  0  0  0  0  0  0  0  0  0  0
    1.0802   -5.0605    0.0000 O   0  0  0  0  0  0  0  0  0  0  0  0
    1.3502   -3.6573    0.0000 N   0  0  0  0  0  0  0  0  0  0  0  0
    1.0802   -2.8777    0.0000 C   0  0  0  0  0  0  0  0  0  0  0  0
    2.1604   -3.8132    0.0000 C   0  0  0  0  0  0  0  0  0  0  0  0
    2.4304   -4.5927    0.0000 N   0  0  0  0  0  0  0  0  0  0  0  0
    2.7004   -3.1895    0.0000 C   0  0  0  0  0  0  0  0  0  0  0  0
    2.4304   -2.4100    0.0000 C   0  0  0  0  0  0  0  0  0  0  0  0
    3.5106   -3.3454    0.0000 N   0  0  0  0  0  0  0  0  0  0  0  0
    4.0507   -2.7218    0.0000 C   0  0  0  0  0  0  0  0  0  0  0  0
    3.7806   -1.9423    0.0000 C   0  0  0  0  0  0  0  0  0  0  0  0
    2.9705   -1.7863    0.0000 C   0  0  0  0  0  0  0  0  0  0  0  0
    2.7004   -1.0068    0.0000 C   0  0  0  0  0  0  0  0  0  0  0  0
    3.2405   -0.3832    0.0000 C   0  0  0  0  0  0  0  0  0  0  0  0
    4.0507   -0.5391    0.0000 C   0  0  0  0  0  0  0  0  0  0  0  0
    4.3207   -1.3186    0.0000 C   0  0  0  0  0  0  0  0  0  0  0  0
    3.7806   -4.1250    0.0000 C   0  0  0  0  0  0  0  0  0  0  0  0
    4.5908   -4.2809    0.0000 C   0  0  0  0  0  0  0  0  0  0  0  0
    5.1308   -3.6573    0.0000 C   0  0  0  0  0  0  0  0  0  0  0  0
    5.9410   -3.8132    0.0000 C   0  0  0  0  0  0  0  0  0  0  0  0
    6.2110   -4.5927    0.0000 C   0  0  0  0  0  0  0  0  0  0  0  0
    5.6709   -5.2164    0.0000 C   0  0  0  0  0  0  0  0  0  0  0  0
    4.8608   -5.0605    0.0000 C   0  0  0  0  0  0  0  0  0  0  0  0
   -0.2700   -5.5282    0.0000 C   0  0  0  0  0  0  0  0  0  0  0  0
   -0.8101   -6.1518    0.0000 C   0  0  0  0  0  0  0  0  0  0  0  0
   -0.5401   -6.9314    0.0000 O   0  0  0  0  0  0  0  0  0  0  0  0
    0.2700   -7.0873    0.0000 C   0  0  0  0  0  0  0  0  0  0  0  0
    0.8101   -6.4637    0.0000 C   0  0  0  0  0  0  0  0  0  0  0  0
    0.5401   -7.8668    0.0000 C   0  0  0  0  0  0  0  0  0  0  0  0
    1.3502   -8.0228    0.0000 C   0  0  0  0  0  0  0  0  0  0  0  0
    1.6203   -8.8023    0.0000 C   0  0  0  0  0  0  0  0  0  0  0  0
    1.0802   -9.4260    0.0000 C   0  0  0  0  0  0  0  0  0  0  0  0
    0.2700   -9.2700    0.0000 C   0  0  0  0  0  0  0  0  0  0  0  0
    0.0000   -8.4905    0.0000 C   0  0  0  0  0  0  0  0  0  0  0  0
  1  2  1  0  0  0  0
  2  3  4  0  0  0  0
  3  4  4  0  0  0  0
  4  5  1  0  0  0  0
  4  6  4  0  0  0  0
  6  7  4  0  0  0  0
  7  8  4  0  0  0  0
  2  8  4  0  0  0  0
  8  9  1  0  0  0  0
  9 10  1  0  0  0  0
 10 11  2  0  0  0  0
 10 12  1  0  0  0  0
 12 13  4  0  0  0  0
 13 14  4  0  0  0  0
 14 15  1  0  0  0  0
 14 16  4  0  0  0  0
 16 17  1  0  0  0  0
 17 18  1  0  0  0  0
 18 19  2  0  0  0  0
 18 20  1  0  0  0  0
 20 21  1  0  0  0  0
 20 22  1  0  0  0  0
 22 23  2  0  0  0  0
 22 24  1  0  0  0  0
 24 25  1  0  0  0  0
 24 26  1  0  0  0  0
 26 27  1  0  0  0  0
 27 28  1  0  0  0  0
 28 29  4  0  0  0  0
 29 30  4  0  0  0  0
 30 31  4  0  0  0  0
 31 32  4  0  0  0  0
 32 33  4  0  0  0  0
 28 33  4  0  0  0  0
 26 34  1  0  0  0  0
 34 35  1  0  0  0  0
 35 36  4  0  0  0  0
 36 37  4  0  0  0  0
 37 38  4  0  0  0  0
 38 39  4  0  0  0  0
 39 40  4  0  0  0  0
 35 40  4  0  0  0  0
 16 41  4  0  0  0  0
 41 42  4  0  0  0  0
 12 42  4  0  0  0  0
 42 43  1  0  0  0  0
 43 44  1  0  0  0  0
 44 45  1  0  0  0  0
 44 46  1  0  0  0  0
 46 47  1  0  0  0  0
 47 48  1  0  0  0  0
 48 49  1  0  0  0  0
 49 50  1  0  0  0  0
 50 51  1  0  0  0  0
 46 51  1  0  0  0  0
M  END
> <IC50(uM)>
5.9

> <Outcome>
0.0

> <BindingDB ID>
1098703

> <BindingDB MonomerID>
520267

> <BindingDB Ligand Name>
4-{3-[(1R)-1-aminoethyl]-4-methyl-5-oxo-4,5-dihydro-1H-1,2,4-triazol-1-yl}-N-(4-amino-2-methylphenyl)-2-(1-cyclohexylethoxy)-5-fluorobenzamide::US11130745, Example 91

> <Curation/DataSource>
US Patent

> <Article DOI>
?

> <PMID>
?

> <Patent Number>
US11130745

> <Authors>
Gradl, SN; Nguyen, D; Eis, K; Gunther, J; Stellfeld, T; Janzer, A; Christian, S; Muller, T; Sheikh, SE; Sykes, DB; Ferrara, SJ; Krober, M; Merz, C; Niehues, M; Schafer, M; Zimmermann, K; Nising, CF

> <Link to Ligand in BindingDB>
http://www.bindingdb.org/bind/chemsearch/marvin/MolStructure.jsp?monomerid=520267

> <Link to Ligand-Target Pair in BindingDB>
http://www.bindingdb.org/jsp/dbsearch/PrimarySearch_ki.jsp?energyterm=kJ/mole&tag=r21&monomerid=520267&enzyme=Dihydroorotate+dehydrogenase&column=ki&startPg=0&Increment=50&submit=Search

> <PubChem CID>
?

> <PubChem SID>
?

$$$$

  Mrv2115 07222212352D          

 33 37  0  0  0  0            999 V2000
   -0.1712   -0.6979    0.0000 C   0  0  0  0  0  0  0  0  0  0  0  0
    0.6538   -0.6979    0.0000 C   0  0  0  0  0  0  0  0  0  0  0  0
    1.1387   -0.0305    0.0000 N   0  0  0  0  0  0  0  0  0  0  0  0
    1.9233   -0.2854    0.0000 C   0  0  0  0  0  0  0  0  0  0  0  0
    2.6378    0.1271    0.0000 C   0  0  0  0  0  0  0  0  0  0  0  0
    2.6378    0.9521    0.0000 C   0  0  0  0  0  0  0  0  0  0  0  0
    3.3523    1.3646    0.0000 O   0  0  0  0  0  0  0  0  0  0  0  0
    1.9233    1.3646    0.0000 O   0  0  0  0  0  0  0  0  0  0  0  0
    3.3523   -0.2854    0.0000 C   0  0  0  0  0  0  0  0  0  0  0  0
    3.3523   -1.1104    0.0000 C   0  0  0  0  0  0  0  0  0  0  0  0
    4.0668   -1.5229    0.0000 C   0  0  0  0  0  0  0  0  0  0  0  0
    4.7812   -1.1104    0.0000 C   0  0  0  0  0  0  0  0  0  0  0  0
    5.4957   -1.5229    0.0000 C   0  0  0  0  0  0  0  0  0  0  0  0
    5.4957   -2.3479    0.0000 C   0  0  0  0  0  0  0  0  0  0  0  0
    6.2102   -2.7604    0.0000 C   0  0  0  0  0  0  0  0  0  0  0  0
    6.9246   -2.3479    0.0000 C   0  0  0  0  0  0  0  0  0  0  0  0
    7.6391   -2.7604    0.0000 C   0  0  0  0  0  0  0  0  0  0  0  0
    7.6391   -3.5854    0.0000 C   0  0  0  0  0  0  0  0  0  0  0  0
    6.9246   -3.9979    0.0000 C   0  0  0  0  0  0  0  0  0  0  0  0
    6.9246   -4.8229    0.0000 O   0  0  0  0  0  0  0  0  0  0  0  0
    7.6391   -5.2354    0.0000 C   0  0  0  0  0  0  0  0  0  0  0  0
    7.6391   -6.0604    0.0000 C   0  0  0  0  0  0  0  0  0  0  0  0
    8.3536   -6.4729    0.0000 C   0  0  0  0  0  0  0  0  0  0  0  0
    8.3536   -7.2979    0.0000 C   0  0  0  0  0  0  0  0  0  0  0  0
    7.6391   -7.7104    0.0000 C   0  0  0  0  0  0  0  0  0  0  0  0
    6.9246   -7.2979    0.0000 C   0  0  0  0  0  0  0  0  0  0  0  0
    6.9246   -6.4729    0.0000 C   0  0  0  0  0  0  0  0  0  0  0  0
    6.2102   -3.5854    0.0000 C   0  0  0  0  0  0  0  0  0  0  0  0
    4.7812   -2.7604    0.0000 C   0  0  0  0  0  0  0  0  0  0  0  0
    4.0668   -2.3479    0.0000 C   0  0  0  0  0  0  0  0  0  0  0  0
    2.6378   -1.5229    0.0000 C   0  0  0  0  0  0  0  0  0  0  0  0
    1.9233   -1.1104    0.0000 C   0  0  0  0  0  0  0  0  0  0  0  0
    1.1387   -1.3654    0.0000 N   0  0  0  0  0  0  0  0  0  0  0  0
  1  2  1  0  0  0  0
  2  3  4  0  0  0  0
  3  4  4  0  0  0  0
  4  5  4  0  0  0  0
  5  6  1  0  0  0  0
  6  7  2  0  0  0  0
  6  8  1  0  0  0  0
  5  9  4  0  0  0  0
  9 10  4  0  0  0  0
 10 11  1  0  0  0  0
 11 12  4  0  0  0  0
 12 13  4  0  0  0  0
 13 14  4  0  0  0  0
 14 15  1  0  0  0  0
 15 16  4  0  0  0  0
 16 17  4  0  0  0  0
 17 18  4  0  0  0  0
 18 19  4  0  0  0  0
 19 20  1  0  0  0  0
 20 21  1  0  0  0  0
 21 22  1  0  0  0  0
 22 23  4  0  0  0  0
 23 24  4  0  0  0  0
 24 25  4  0  0  0  0
 25 26  4  0  0  0  0
 26 27  4  0  0  0  0
 22 27  4  0  0  0  0
 19 28  4  0  0  0  0
 15 28  4  0  0  0  0
 14 29  4  0  0  0  0
 29 30  4  0  0  0  0
 11 30  4  0  0  0  0
 10 31  4  0  0  0  0
 31 32  4  0  0  0  0
  4 32  4  0  0  0  0
 32 33  4  0  0  0  0
  2 33  4  0  0  0  0
M  STY  1   1 DAT
M  SAL   1  1  33
M  SDT   1 MRV_IMPLICIT_H                                        
M  SDD   1     0.5304   -0.4125    DR    ALL  0       0  
M  SED   1 IMPL_H1
M  END
> <IC50(uM)>
0.055

> <Outcome>
1.0

> <BindingDB ID>
1045586

> <BindingDB MonomerID>
501644

> <BindingDB Ligand Name>
US11028054, Example 15

> <Curation/DataSource>
US Patent

> <Article DOI>
?

> <PMID>
?

> <Patent Number>
US11028054

> <Authors>
Thunuguntla, SS; Hosahalli, S; Panigrahi, SK; Schwarz, M; Arit, M

> <Link to Ligand in BindingDB>
http://www.bindingdb.org/bind/chemsearch/marvin/MolStructure.jsp?monomerid=501644

> <Link to Ligand-Target Pair in BindingDB>
http://www.bindingdb.org/jsp/dbsearch/PrimarySearch_ki.jsp?energyterm=kJ/mole&tag=r21&monomerid=501644&enzyme=Dihydroorotate+dehydrogenase&column=ki&startPg=0&Increment=50&submit=Search

> <PubChem CID>
?

> <PubChem SID>
?

$$$$

  Mrv2115 07222212352D          

 37 41  0  0  0  0            999 V2000
   -5.1659   -2.8414    0.0000 C   0  0  0  0  0  0  0  0  0  0  0  0
   -5.5784   -2.1269    0.0000 C   0  0  0  0  0  0  0  0  0  0  0  0
   -6.4034   -2.1269    0.0000 C   0  0  0  0  0  0  0  0  0  0  0  0
   -6.8159   -1.4124    0.0000 C   0  0  0  0  0  0  0  0  0  0  0  0
   -6.4034   -0.6979    0.0000 C   0  0  0  0  0  0  0  0  0  0  0  0
   -5.5784   -0.6979    0.0000 C   0  0  0  0  0  0  0  0  0  0  0  0
   -5.1659    0.0165    0.0000 F   0  0  0  0  0  0  0  0  0  0  0  0
   -5.1659   -1.4124    0.0000 C   0  0  0  0  0  0  0  0  0  0  0  0
   -4.3409   -1.4124    0.0000 N   0  0  0  0  0  0  0  0  0  0  0  0
   -3.9284   -0.6979    0.0000 C   0  0  0  0  0  0  0  0  0  0  0  0
   -4.3409    0.0165    0.0000 O   0  0  0  0  0  0  0  0  0  0  0  0
   -3.1034   -0.6979    0.0000 C   0  0  0  0  0  0  0  0  0  0  0  0
   -2.6909    0.0165    0.0000 C   0  0  0  0  0  0  0  0  0  0  0  0
   -1.8659    0.0165    0.0000 C   0  0  0  0  0  0  0  0  0  0  0  0
   -1.4534    0.7310    0.0000 F   0  0  0  0  0  0  0  0  0  0  0  0
   -1.4534   -0.6979    0.0000 C   0  0  0  0  0  0  0  0  0  0  0  0
   -0.6284   -0.6979    0.0000 N   0  0  0  0  0  0  0  0  0  0  0  0
   -0.1435   -1.3654    0.0000 N   0  0  0  0  0  0  0  0  0  0  0  0
    0.6411   -1.1104    0.0000 C   0  0  0  0  0  0  0  0  0  0  0  0
    0.6411   -0.2854    0.0000 N   0  0  0  0  0  0  0  0  0  0  0  0
   -0.1435   -0.0305    0.0000 C   0  0  0  0  0  0  0  0  0  0  0  0
   -0.3984    0.7541    0.0000 O   0  0  0  0  0  0  0  0  0  0  0  0
    1.3556    0.1271    0.0000 C   0  0  0  0  0  0  0  0  0  0  0  0
    2.0701   -0.2854    0.0000 C   0  0  0  0  0  0  0  0  0  0  0  0
    2.0701   -1.1104    0.0000 C   0  0  0  0  0  0  0  0  0  0  0  0
    1.3556   -1.5229    0.0000 C   0  0  0  0  0  0  0  0  0  0  0  0
   -1.8659   -1.4124    0.0000 C   0  0  0  0  0  0  0  0  0  0  0  0
   -2.6909   -1.4124    0.0000 C   0  0  0  0  0  0  0  0  0  0  0  0
   -3.1034   -2.1269    0.0000 O   0  0  0  0  0  0  0  0  0  0  0  0
   -2.6909   -2.8414    0.0000 C   0  0  0  0  0  0  0  0  0  0  0  0
   -1.8659   -2.8414    0.0000 C   0  0  0  0  0  0  0  0  0  0  0  0
   -3.1034   -3.5558    0.0000 C   0  0  0  0  0  0  0  0  0  0  0  0
   -2.6909   -4.2703    0.0000 C   0  0  0  0  0  0  0  0  0  0  0  0
   -3.1034   -4.9848    0.0000 C   0  0  0  0  0  0  0  0  0  0  0  0
   -3.9284   -4.9848    0.0000 C   0  0  0  0  0  0  0  0  0  0  0  0
   -4.3409   -4.2703    0.0000 C   0  0  0  0  0  0  0  0  0  0  0  0
   -3.9284   -3.5558    0.0000 C   0  0  0  0  0  0  0  0  0  0  0  0
  1  2  1  0  0  0  0
  2  3  4  0  0  0  0
  3  4  4  0  0  0  0
  4  5  4  0  0  0  0
  5  6  4  0  0  0  0
  6  7  1  0  0  0  0
  6  8  4  0  0  0  0
  2  8  4  0  0  0  0
  8  9  1  0  0  0  0
  9 10  1  0  0  0  0
 10 11  2  0  0  0  0
 10 12  1  0  0  0  0
 12 13  4  0  0  0  0
 13 14  4  0  0  0  0
 14 15  1  0  0  0  0
 14 16  4  0  0  0  0
 16 17  1  0  0  0  0
 17 18  4  0  0  0  0
 18 19  4  0  0  0  0
 19 20  4  0  0  0  0
 20 21  4  0  0  0  0
 17 21  4  0  0  0  0
 21 22  2  0  0  0  0
 20 23  1  0  0  0  0
 23 24  1  0  0  0  0
 24 25  1  0  0  0  0
 25 26  1  0  0  0  0
 19 26  1  0  0  0  0
 16 27  4  0  0  0  0
 27 28  4  0  0  0  0
 12 28  4  0  0  0  0
 28 29  1  0  0  0  0
 29 30  1  0  0  0  0
 30 31  1  0  0  0  0
 30 32  1  0  0  0  0
 32 33  4  0  0  0  0
 33 34  4  0  0  0  0
 34 35  4  0  0  0  0
 35 36  4  0  0  0  0
 36 37  4  0  0  0  0
 32 37  4  0  0  0  0
M  END
> <IC50(uM)>
0.007566666666666666

> <Outcome>
1.0

> <BindingDB ID>
1020669; 1020668

> <BindingDB MonomerID>
490595

> <BindingDB Ligand Name>
5-fluoro-N-(2-fluoro-6-methylphenyl)-4-(3-oxo-5,6,7,8-tetrahydro[1,2,4]triazolo[4,3-a]pyridin-2(3H)-yl)-2-[(1S)-1-phenylethoxy]benzamide::US10968216, Example 263

> <Curation/DataSource>
US Patent

> <Article DOI>
?

> <PMID>
?

> <Patent Number>
US10968216

> <Authors>
Gradl, SN; Nguyen, D; Eis, K; Gunther, J; Stellfeld, T; Janzer, A; Christian, S; Mueller, T; Sheikh, SE; Zhou, HJ; Zhao, C; Sykes, DB; Ferrara, SJ; Liu, K; Herbert, SA; Merz, C; Niehues, M; Nising, CF; Schafer, M; Zimmermann, K; Knablein, J; Thede, K; Faupel, T

> <Link to Ligand in BindingDB>
http://www.bindingdb.org/bind/chemsearch/marvin/MolStructure.jsp?monomerid=490595

> <Link to Ligand-Target Pair in BindingDB>
http://www.bindingdb.org/jsp/dbsearch/PrimarySearch_ki.jsp?energyterm=kJ/mole&tag=r21&monomerid=490595&enzyme=Dihydroorotate+dehydrogenase&column=ki&startPg=0&Increment=50&submit=Search

> <PubChem CID>
134474423

> <PubChem SID>
447117321

$$$$

  Mrv2115 07222212352D          

 26 29  0  0  0  0            999 V2000
    2.8579    9.2026    0.0000 C   0  0  0  0  0  0  0  0  0  0  0  0
    3.5724    8.7901    0.0000 C   0  0  0  0  0  0  0  0  0  0  0  0
    4.2868    9.2026    0.0000 C   0  0  0  0  0  0  0  0  0  0  0  0
    5.0013    8.7901    0.0000 C   0  0  0  0  0  0  0  0  0  0  0  0
    5.0013    7.9651    0.0000 C   0  0  0  0  0  0  0  0  0  0  0  0
    4.2868    7.5526    0.0000 C   0  0  0  0  0  0  0  0  0  0  0  0
    3.5724    7.9651    0.0000 C   0  0  0  0  0  0  0  0  0  0  0  0
    2.8579    7.5526    0.0000 C   0  0  0  0  0  0  0  0  0  0  0  0
    2.8579    6.7276    0.0000 N   0  0  0  0  0  0  0  0  0  0  0  0
    2.1434    6.3151    0.0000 C   0  0  0  0  0  0  0  0  0  0  0  0
    1.4289    6.7276    0.0000 C   0  0  0  0  0  0  0  0  0  0  0  0
    0.7145    6.3151    0.0000 N   0  0  0  0  0  0  0  0  0  0  0  0
    0.7145    5.4901    0.0000 C   0  0  0  0  0  0  0  0  0  0  0  0
    1.4289    5.0776    0.0000 C   0  0  0  0  0  0  0  0  0  0  0  0
    1.4289    4.2526    0.0000 C   0  0  0  0  0  0  0  0  0  0  0  0
    0.7145    3.8401    0.0000 C   0  0  0  0  0  0  0  0  0  0  0  0
    0.7145    3.0151    0.0000 C   0  0  0  0  0  0  0  0  0  0  0  0
    1.1270    2.3007    0.0000 C   0  0  0  0  0  0  0  0  0  0  0  0
    0.3020    2.3007    0.0000 C   0  0  0  0  0  0  0  0  0  0  0  0
    0.0000    4.2526    0.0000 C   0  0  0  0  0  0  0  0  0  0  0  0
    0.0000    5.0776    0.0000 C   0  0  0  0  0  0  0  0  0  0  0  0
   -0.7145    5.4901    0.0000 C   0  0  0  0  0  0  0  0  0  0  0  0
   -0.7145    6.3151    0.0000 O   0  0  0  0  0  0  0  0  0  0  0  0
   -1.4289    5.0776    0.0000 O   0  0  0  0  0  0  0  0  0  0  0  0
    1.4289    7.5526    0.0000 C   0  0  0  0  0  0  0  0  0  0  0  0
    2.1434    7.9651    0.0000 N   0  0  0  0  0  0  0  0  0  0  0  0
  1  2  1  0  0  0  0
  2  3  4  0  0  0  0
  3  4  4  0  0  0  0
  4  5  4  0  0  0  0
  5  6  4  0  0  0  0
  6  7  4  0  0  0  0
  2  7  4  0  0  0  0
  7  8  1  0  0  0  0
  8  9  4  0  0  0  0
  9 10  4  0  0  0  0
 10 11  4  0  0  0  0
 11 12  1  0  0  0  0
 12 13  1  0  0  0  0
 13 14  4  0  0  0  0
 14 15  4  0  0  0  0
 15 16  4  0  0  0  0
 16 17  1  0  0  0  0
 17 18  1  0  0  0  0
 18 19  1  0  0  0  0
 17 19  1  0  0  0  0
 16 20  4  0  0  0  0
 20 21  4  0  0  0  0
 13 21  4  0  0  0  0
 21 22  1  0  0  0  0
 22 23  2  0  0  0  0
 22 24  1  0  0  0  0
 11 25  4  0  0  0  0
 25 26  4  0  0  0  0
  8 26  4  0  0  0  0
M  END
> <IC50(uM)>
0.012

> <Outcome>
1.0

> <BindingDB ID>
220024

> <BindingDB MonomerID>
102494

> <BindingDB Ligand Name>
US8536165, 98

> <Curation/DataSource>
US Patent

> <Article DOI>
?

> <PMID>
?

> <Patent Number>
US8536165

> <Authors>
Castro Palomino Laria, JC; Terricabras Belart, E; Erra Sola, M; Navarro Romero, E; Fonquerna Pou, S; Cardus Figueras, A; Lozoya Toribio, ME

> <Link to Ligand in BindingDB>
http://www.bindingdb.org/bind/chemsearch/marvin/MolStructure.jsp?monomerid=102494

> <Link to Ligand-Target Pair in BindingDB>
http://www.bindingdb.org/jsp/dbsearch/PrimarySearch_ki.jsp?energyterm=kJ/mole&tag=r21&monomerid=102494&enzyme=Dihydroorotate+dehydrogenase&column=ki&startPg=0&Increment=50&submit=Search

> <PubChem CID>
57479011

> <PubChem SID>
172097785

$$$$

  Mrv2115 07222212352D          

 21 23  0  0  0  0            999 V2000
    2.7512    0.7634    0.0000 Br  0  0  0  0  0  0  0  0  0  0  0  0
    2.7512   -0.0616    0.0000 C   0  0  0  0  0  0  0  0  0  0  0  0
    3.4656   -0.4741    0.0000 C   0  0  0  0  0  0  0  0  0  0  0  0
    3.4656   -1.2991    0.0000 C   0  0  0  0  0  0  0  0  0  0  0  0
    2.7512   -1.7116    0.0000 C   0  0  0  0  0  0  0  0  0  0  0  0
    2.7512   -2.5366    0.0000 C   0  0  0  0  0  0  0  0  0  0  0  0
    3.4186   -3.0215    0.0000 C   0  0  0  0  0  0  0  0  0  0  0  0
    3.1637   -3.8062    0.0000 S   0  0  0  0  0  0  0  0  0  0  0  0
    2.3387   -3.8062    0.0000 C   0  0  0  0  0  0  0  0  0  0  0  0
    1.8538   -4.4736    0.0000 N   0  0  0  0  0  0  0  0  0  0  0  0
    1.0333   -4.3874    0.0000 N   0  0  0  0  0  0  0  0  0  0  0  0
    0.5484   -5.0548    0.0000 C   0  0  0  0  0  0  0  0  0  0  0  0
   -0.2721   -4.9686    0.0000 C   0  0  0  0  0  0  0  0  0  0  0  0
   -0.7571   -5.6360    0.0000 C   0  0  0  0  0  0  0  0  0  0  0  0
   -1.5775   -5.5498    0.0000 C   0  0  0  0  0  0  0  0  0  0  0  0
   -1.9131   -4.7961    0.0000 C   0  0  0  0  0  0  0  0  0  0  0  0
   -1.4282   -4.1286    0.0000 C   0  0  0  0  0  0  0  0  0  0  0  0
   -0.6077   -4.2149    0.0000 C   0  0  0  0  0  0  0  0  0  0  0  0
    2.0837   -3.0215    0.0000 N   0  0  0  0  0  0  0  0  0  0  0  0
    2.0367   -1.2991    0.0000 C   0  0  0  0  0  0  0  0  0  0  0  0
    2.0367   -0.4741    0.0000 C   0  0  0  0  0  0  0  0  0  0  0  0
  1  2  1  0  0  0  0
  2  3  4  0  0  0  0
  3  4  4  0  0  0  0
  4  5  4  0  0  0  0
  5  6  1  0  0  0  0
  6  7  4  0  0  0  0
  7  8  4  0  0  0  0
  8  9  4  0  0  0  0
 10  9  1  4  0  0  0
 10 11  2  0  0  0  0
 11 12  1  0  0  0  0
 12 13  1  0  0  0  0
 13 14  4  0  0  0  0
 14 15  4  0  0  0  0
 15 16  4  0  0  0  0
 16 17  4  0  0  0  0
 17 18  4  0  0  0  0
 13 18  4  0  0  0  0
  9 19  4  0  0  0  0
  6 19  4  0  0  0  0
  5 20  4  0  0  0  0
 20 21  4  0  0  0  0
  2 21  4  0  0  0  0
M  END
> <IC50(uM)>
3.3

> <Outcome>
0.0

> <BindingDB ID>
50971937

> <BindingDB MonomerID>
50398641

> <BindingDB Ligand Name>
CHEMBL1076869

> <Curation/DataSource>
ChEMBL

> <Article DOI>
10.1021/jm300630p

> <PMID>
22984987

> <Patent Number>
?

> <Authors>
Diao, Y; Lu, W; Jin, H; Zhu, J; Han, L; Xu, M; Gao, R; Shen, X; Zhao, Z; Liu, X; Xu, Y; Huang, J; Li, H

> <Link to Ligand in BindingDB>
http://www.bindingdb.org/bind/chemsearch/marvin/MolStructure.jsp?monomerid=50398641

> <Link to Ligand-Target Pair in BindingDB>
http://www.bindingdb.org/jsp/dbsearch/PrimarySearch_ki.jsp?energyterm=kJ/mole&tag=r21&monomerid=50398641&enzyme=Dihydroorotate+dehydrogenase&column=ki&startPg=0&Increment=50&submit=Search

> <PubChem CID>
91928514

> <PubChem SID>
163347665

$$$$

  Mrv2115 07222212352D          

 20 21  0  0  0  0            999 V2000
    0.6078    1.1759    0.0000 C   0  0  0  0  0  0  0  0  0  0  0  0
    1.3222    0.7634    0.0000 C   0  0  0  0  0  0  0  0  0  0  0  0
    1.3222   -0.0616    0.0000 O   0  0  0  0  0  0  0  0  0  0  0  0
    2.0367   -0.4741    0.0000 C   0  0  0  0  0  0  0  0  0  0  0  0
    2.7512   -0.0616    0.0000 O   0  0  0  0  0  0  0  0  0  0  0  0
    2.0367   -1.2991    0.0000 C   0  0  0  0  0  0  0  0  0  0  0  0
    2.7041   -1.7840    0.0000 S   0  0  0  0  0  0  0  0  0  0  0  0
    2.4492   -2.5687    0.0000 C   0  0  0  0  0  0  0  0  0  0  0  0
    2.9341   -3.2361    0.0000 N   0  0  0  0  0  0  0  0  0  0  0  0
    2.5986   -3.9898    0.0000 C   0  0  0  0  0  0  0  0  0  0  0  0
    3.0835   -4.6572    0.0000 C   0  0  0  0  0  0  0  0  0  0  0  0
    2.7479   -5.4109    0.0000 C   0  0  0  0  0  0  0  0  0  0  0  0
    1.9275   -5.4971    0.0000 C   0  0  0  0  0  0  0  0  0  0  0  0
    1.5919   -6.2508    0.0000 C   0  0  0  0  0  0  0  0  0  0  0  0
    1.4425   -4.8297    0.0000 C   0  0  0  0  0  0  0  0  0  0  0  0
    0.6221   -4.9159    0.0000 C   0  0  0  0  0  0  0  0  0  0  0  0
    1.7781   -4.0760    0.0000 C   0  0  0  0  0  0  0  0  0  0  0  0
    1.6242   -2.5687    0.0000 N   0  0  0  0  0  0  0  0  0  0  0  0
    1.3693   -1.7840    0.0000 C   0  0  0  0  0  0  0  0  0  0  0  0
    0.5846   -1.5291    0.0000 C   0  0  0  0  0  0  0  0  0  0  0  0
  1  2  1  0  0  0  0
  2  3  1  0  0  0  0
  3  4  1  0  0  0  0
  4  5  2  0  0  0  0
  4  6  1  0  0  0  0
  6  7  4  0  0  0  0
  7  8  4  0  0  0  0
  8  9  1  0  0  0  0
  9 10  1  0  0  0  0
 10 11  4  0  0  0  0
 11 12  4  0  0  0  0
 12 13  4  0  0  0  0
 13 14  1  0  0  0  0
 13 15  4  0  0  0  0
 15 16  1  0  0  0  0
 15 17  4  0  0  0  0
 10 17  4  0  0  0  0
  8 18  4  0  0  0  0
 18 19  4  0  0  0  0
  6 19  4  0  0  0  0
 19 20  1  0  0  0  0
M  END
> <IC50(uM)>
1.358

> <Outcome>
0.0

> <BindingDB ID>
50312473

> <BindingDB MonomerID>
50071785

> <BindingDB Ligand Name>
CHEMBL3410578

> <Curation/DataSource>
ChEMBL

> <Article DOI>
10.1021/jm501127s

> <PMID>
25580811

> <Patent Number>
?

> <Authors>
Zhu, J; Han, L; Diao, Y; Ren, X; Xu, M; Xu, L; Li, S; Li, Q; Dong, D; Huang, J; Liu, X; Zhao, Z; Wang, R; Zhu, L; Xu, Y; Qian, X; Li, H

> <Link to Ligand in BindingDB>
http://www.bindingdb.org/bind/chemsearch/marvin/MolStructure.jsp?monomerid=50071785

> <Link to Ligand-Target Pair in BindingDB>
http://www.bindingdb.org/jsp/dbsearch/PrimarySearch_ki.jsp?energyterm=kJ/mole&tag=r21&monomerid=50071785&enzyme=Dihydroorotate+dehydrogenase&column=ki&startPg=0&Increment=50&submit=Search

> <PubChem CID>
7955004

> <PubChem SID>
103965495

$$$$

  Mrv2115 07222212352D          

 26 29  0  0  0  0            999 V2000
    6.8513   -2.4750    0.0000 C   0  0  0  0  0  0  0  0  0  0  0  0
    6.1368   -2.8875    0.0000 C   0  0  0  0  0  0  0  0  0  0  0  0
    6.1368   -3.7125    0.0000 C   0  0  0  0  0  0  0  0  0  0  0  0
    5.4223   -4.1250    0.0000 C   0  0  0  0  0  0  0  0  0  0  0  0
    5.4223   -4.9500    0.0000 N   0  0  0  0  0  0  0  0  0  0  0  0
    6.1368   -5.3625    0.0000 C   0  0  0  0  0  0  0  0  0  0  0  0
    6.8513   -4.9500    0.0000 C   0  0  0  0  0  0  0  0  0  0  0  0
    7.5658   -5.3625    0.0000 C   0  0  0  0  0  0  0  0  0  0  0  0
    7.5658   -6.1875    0.0000 C   0  0  0  0  0  0  0  0  0  0  0  0
    8.2802   -6.6000    0.0000 C   0  0  0  0  0  0  0  0  0  0  0  0
    8.2802   -7.4250    0.0000 C   0  0  0  0  0  0  0  0  0  0  0  0
    8.9947   -7.8375    0.0000 Cl  0  0  0  0  0  0  0  0  0  0  0  0
    7.5658   -7.8375    0.0000 C   0  0  0  0  0  0  0  0  0  0  0  0
    6.8513   -7.4250    0.0000 C   0  0  0  0  0  0  0  0  0  0  0  0
    6.8513   -6.6000    0.0000 C   0  0  0  0  0  0  0  0  0  0  0  0
    6.1368   -6.1875    0.0000 C   0  0  0  0  0  0  0  0  0  0  0  0
    4.7079   -3.7125    0.0000 N   0  0  0  0  0  0  0  0  0  0  0  0
    3.9232   -3.9674    0.0000 N   0  0  0  0  0  0  0  0  0  0  0  0
    3.4383   -3.3000    0.0000 C   0  0  0  0  0  0  0  0  0  0  0  0
    2.6133   -3.3000    0.0000 C   0  0  0  0  0  0  0  0  0  0  0  0
    1.7883   -3.3000    0.0000 C   0  0  0  0  0  0  0  0  0  0  0  0
    2.6133   -2.4750    0.0000 F   0  0  0  0  0  0  0  0  0  0  0  0
    2.6133   -4.1250    0.0000 F   0  0  0  0  0  0  0  0  0  0  0  0
    3.9232   -2.6326    0.0000 N   0  0  0  0  0  0  0  0  0  0  0  0
    4.7079   -2.8875    0.0000 C   0  0  0  0  0  0  0  0  0  0  0  0
    5.4223   -2.4750    0.0000 N   0  0  0  0  0  0  0  0  0  0  0  0
  1  2  1  0  0  0  0
  2  3  4  0  0  0  0
  3  4  4  0  0  0  0
  4  5  1  0  0  0  0
  5  6  1  0  0  0  0
  6  7  1  0  0  0  0
  7  8  1  0  0  0  0
  8  9  1  0  0  0  0
  9 10  4  0  0  0  0
 10 11  4  0  0  0  0
 11 12  1  0  0  0  0
 11 13  4  0  0  0  0
 13 14  4  0  0  0  0
 14 15  4  0  0  0  0
  9 15  4  0  0  0  0
 15 16  1  0  0  0  0
  6 16  1  0  0  0  0
  4 17  4  0  0  0  0
 17 18  4  0  0  0  0
 18 19  4  0  0  0  0
 19 20  1  0  0  0  0
 20 21  1  0  0  0  0
 20 22  1  0  0  0  0
 20 23  1  0  0  0  0
 19 24  4  0  0  0  0
 24 25  4  0  0  0  0
 17 25  4  0  0  0  0
 25 26  4  0  0  0  0
  2 26  4  0  0  0  0
M  END
> <IC50(uM)>
100.0

> <Outcome>
0.0

> <BindingDB ID>
51372995; 51372996

> <BindingDB MonomerID>
50555364

> <BindingDB Ligand Name>
CHEMBL4761666

> <Curation/DataSource>
ChEMBL

> <Article DOI>
?

> <PMID>
27127993

> <Patent Number>
?

> <Authors>
Kokkonda, S; Deng, X; White, KL; Coteron, JM; Marco, M; de Las Heras, L; White, J; El Mazouni, F; Tomchick, DR; Manjalanagara, K; Rudra, KR; Chen, G; Morizzi, J; Ryan, E; Kaminsky, W; Leroy, D; Mart??nez-Mart??nez, MS; Jimenez-Diaz, MB; Bazaga, SF; Angulo-Barturen, I; Waterson, D; Burrows, JN; Matthews, D; Charman, SA; Phillips, MA; Rathod, PK

> <Link to Ligand in BindingDB>
http://www.bindingdb.org/bind/chemsearch/marvin/MolStructure.jsp?monomerid=50555364

> <Link to Ligand-Target Pair in BindingDB>
http://www.bindingdb.org/jsp/dbsearch/PrimarySearch_ki.jsp?energyterm=kJ/mole&tag=r21&monomerid=50555364&enzyme=Dihydroorotate+dehydrogenase&column=ki&startPg=0&Increment=50&submit=Search

> <PubChem CID>
162660313

> <PubChem SID>
461694132

$$$$

  Mrv2115 07222212352D          

 28 30  0  0  0  0            999 V2000
   -2.8579   12.1286    0.0000 C   0  0  0  0  0  0  0  0  0  0  0  0
   -2.1434   11.7161    0.0000 C   0  0  0  0  0  0  0  0  0  0  0  0
   -2.1434   10.8911    0.0000 O   0  0  0  0  0  0  0  0  0  0  0  0
   -1.4289   10.4786    0.0000 C   0  0  0  0  0  0  0  0  0  0  0  0
   -0.7145   10.8911    0.0000 C   0  0  0  0  0  0  0  0  0  0  0  0
    0.0000   10.4786    0.0000 C   0  0  0  0  0  0  0  0  0  0  0  0
    0.0000    9.6536    0.0000 C   0  0  0  0  0  0  0  0  0  0  0  0
   -0.7145    9.2411    0.0000 C   0  0  0  0  0  0  0  0  0  0  0  0
   -0.7145    8.4161    0.0000 C   0  0  0  0  0  0  0  0  0  0  0  0
    0.0000    8.0036    0.0000 C   0  0  0  0  0  0  0  0  0  0  0  0
    0.0000    7.1786    0.0000 C   0  0  0  0  0  0  0  0  0  0  0  0
    0.7145    6.7661    0.0000 F   0  0  0  0  0  0  0  0  0  0  0  0
   -0.7145    6.7661    0.0000 C   0  0  0  0  0  0  0  0  0  0  0  0
   -0.7145    5.9411    0.0000 N   0  0  0  0  0  0  0  0  0  0  0  0
    0.0000    5.5286    0.0000 C   0  0  0  0  0  0  0  0  0  0  0  0
    0.7145    5.9411    0.0000 O   0  0  0  0  0  0  0  0  0  0  0  0
   -0.0000    4.7036    0.0000 C   0  0  0  0  0  0  0  0  0  0  0  0
   -0.6674    4.2187    0.0000 C   0  0  0  0  0  0  0  0  0  0  0  0
   -0.4125    3.4340    0.0000 O   0  0  0  0  0  0  0  0  0  0  0  0
    0.4125    3.4340    0.0000 C   0  0  0  0  0  0  0  0  0  0  0  0
    0.6674    4.2187    0.0000 C   0  0  0  0  0  0  0  0  0  0  0  0
    1.4521    4.4736    0.0000 C   0  0  0  0  0  0  0  0  0  0  0  0
    1.6236    5.2806    0.0000 O   0  0  0  0  0  0  0  0  0  0  0  0
    2.0652    3.9216    0.0000 O   0  0  0  0  0  0  0  0  0  0  0  0
   -1.4289    7.1786    0.0000 C   0  0  0  0  0  0  0  0  0  0  0  0
   -2.1434    6.7661    0.0000 F   0  0  0  0  0  0  0  0  0  0  0  0
   -1.4289    8.0036    0.0000 C   0  0  0  0  0  0  0  0  0  0  0  0
   -1.4289    9.6536    0.0000 C   0  0  0  0  0  0  0  0  0  0  0  0
  1  2  1  0  0  0  0
  2  3  1  0  0  0  0
  3  4  1  0  0  0  0
  4  5  4  0  0  0  0
  5  6  4  0  0  0  0
  6  7  4  0  0  0  0
  7  8  4  0  0  0  0
  8  9  1  0  0  0  0
  9 10  4  0  0  0  0
 10 11  4  0  0  0  0
 11 12  1  0  0  0  0
 11 13  4  0  0  0  0
 13 14  1  0  0  0  0
 14 15  1  0  0  0  0
 15 16  2  0  0  0  0
 15 17  1  0  0  0  0
 17 18  4  0  0  0  0
 18 19  4  0  0  0  0
 19 20  4  0  0  0  0
 20 21  4  0  0  0  0
 17 21  4  0  0  0  0
 21 22  1  0  0  0  0
 22 23  2  0  0  0  0
 22 24  1  0  0  0  0
 13 25  4  0  0  0  0
 25 26  1  0  0  0  0
 25 27  4  0  0  0  0
  9 27  4  0  0  0  0
  8 28  4  0  0  0  0
  4 28  4  0  0  0  0
M  END
> <IC50(uM)>
0.016

> <Outcome>
1.0

> <BindingDB ID>
29228

> <BindingDB MonomerID>
16125

> <BindingDB Ligand Name>
4-{[4-(3-ethoxyphenyl)-2,6-difluorophenyl]carbamoyl}furan-3-carboxylic acid::Biphenyl-4-ylcarbamoyl Furan Analog 16

> <Curation/DataSource>
Curated from the literature by BindingDB

> <Article DOI>
10.1016/j.bmcl.2005.10.011

> <PMID>
16246558

> <Patent Number>
?

> <Authors>
Leban, J; Kralik, M; Mies, J; Baumgartner, R; Gassen, M; Tasler, S

> <Link to Ligand in BindingDB>
http://www.bindingdb.org/bind/chemsearch/marvin/MolStructure.jsp?monomerid=16125

> <Link to Ligand-Target Pair in BindingDB>
http://www.bindingdb.org/jsp/dbsearch/PrimarySearch_ki.jsp?energyterm=kJ/mole&tag=r21&monomerid=16125&enzyme=Dihydroorotate+Dehydrogenase+%28DHODH%29&column=ki&startPg=0&Increment=50&submit=Search

> <PubChem CID>
23647308

> <PubChem SID>
46516384

$$$$

  Mrv2115 07222212352D          

 22 24  0  0  0  0            999 V2000
   -2.5067   -4.6160    0.0000 C   0  0  0  0  0  0  0  0  0  0  0  0
   -1.8936   -4.0640    0.0000 C   0  0  0  0  0  0  0  0  0  0  0  0
   -2.0652   -3.2570    0.0000 N   0  0  0  0  0  0  0  0  0  0  0  0
   -1.4521   -2.7050    0.0000 C   0  0  0  0  0  0  0  0  0  0  0  0
   -1.6236   -1.8980    0.0000 O   0  0  0  0  0  0  0  0  0  0  0  0
   -0.6674   -2.9599    0.0000 C   0  0  0  0  0  0  0  0  0  0  0  0
   -0.4125   -3.7445    0.0000 C   0  0  0  0  0  0  0  0  0  0  0  0
   -0.8974   -4.4120    0.0000 O   0  0  0  0  0  0  0  0  0  0  0  0
    0.4125   -3.7445    0.0000 C   0  0  0  0  0  0  0  0  0  0  0  0
    0.6674   -2.9599    0.0000 S   0  0  0  0  0  0  0  0  0  0  0  0
    0.0000   -2.4750    0.0000 C   0  0  0  0  0  0  0  0  0  0  0  0
    0.0000   -1.6500    0.0000 N   0  0  0  0  0  0  0  0  0  0  0  0
    0.7145   -1.2375    0.0000 C   0  0  0  0  0  0  0  0  0  0  0  0
    0.7145   -0.4125    0.0000 C   0  0  0  0  0  0  0  0  0  0  0  0
    1.4289    0.0000    0.0000 C   0  0  0  0  0  0  0  0  0  0  0  0
    2.1434   -0.4125    0.0000 C   0  0  0  0  0  0  0  0  0  0  0  0
    2.8579    0.0000    0.0000 C   0  0  0  0  0  0  0  0  0  0  0  0
    3.5724   -0.4125    0.0000 C   0  0  0  0  0  0  0  0  0  0  0  0
    3.5724   -1.2375    0.0000 C   0  0  0  0  0  0  0  0  0  0  0  0
    2.8579   -1.6500    0.0000 C   0  0  0  0  0  0  0  0  0  0  0  0
    2.1434   -1.2375    0.0000 C   0  0  0  0  0  0  0  0  0  0  0  0
    1.4289   -1.6500    0.0000 C   0  0  0  0  0  0  0  0  0  0  0  0
  1  2  1  0  0  0  0
  2  3  1  0  0  0  0
  3  4  1  0  0  0  0
  4  5  2  0  0  0  0
  4  6  1  0  0  0  0
  6  7  4  0  0  0  0
  7  8  1  0  0  0  0
  7  9  4  0  0  0  0
  9 10  4  0  0  0  0
 10 11  4  0  0  0  0
  6 11  4  0  0  0  0
 11 12  1  0  0  0  0
 12 13  1  0  0  0  0
 13 14  4  0  0  0  0
 14 15  4  0  0  0  0
 15 16  4  0  0  0  0
 16 17  4  0  0  0  0
 17 18  4  0  0  0  0
 18 19  4  0  0  0  0
 19 20  4  0  0  0  0
 20 21  4  0  0  0  0
 16 21  4  0  0  0  0
 21 22  4  0  0  0  0
 13 22  4  0  0  0  0
M  END
> <IC50(uM)>
50.0

> <Outcome>
0.0

> <BindingDB ID>
51079150

> <BindingDB MonomerID>
50441258

> <BindingDB Ligand Name>
CHEMBL2431491

> <Curation/DataSource>
ChEMBL

> <Article DOI>
10.1021/jm400938g

> <PMID>
24073986

> <Patent Number>
?

> <Authors>
Xu, M; Zhu, J; Diao, Y; Zhou, H; Ren, X; Sun, D; Huang, J; Han, D; Zhao, Z; Zhu, L; Xu, Y; Li, H

> <Link to Ligand in BindingDB>
http://www.bindingdb.org/bind/chemsearch/marvin/MolStructure.jsp?monomerid=50441258

> <Link to Ligand-Target Pair in BindingDB>
http://www.bindingdb.org/jsp/dbsearch/PrimarySearch_ki.jsp?energyterm=kJ/mole&tag=r21&monomerid=50441258&enzyme=Dihydroorotate+dehydrogenase&column=ki&startPg=0&Increment=50&submit=Search

> <PubChem CID>
91898819

> <PubChem SID>
175453575

$$$$

  Mrv2115 07222212352D          

 20 22  0  0  0  0            999 V2000
   -0.1712   -2.1269    0.0000 O   0  0  0  0  0  0  0  0  0  0  0  0
   -0.5837   -1.4124    0.0000 C   0  0  0  0  0  0  0  0  0  0  0  0
   -0.1712   -0.6979    0.0000 N   0  0  0  0  0  0  0  0  0  0  0  0
    0.6538   -0.6979    0.0000 C   0  0  0  0  0  0  0  0  0  0  0  0
    1.1387   -0.0305    0.0000 N   0  0  0  0  0  0  0  0  0  0  0  0
    1.9233   -0.2854    0.0000 C   0  0  0  0  0  0  0  0  0  0  0  0
    2.6378    0.1271    0.0000 C   0  0  0  0  0  0  0  0  0  0  0  0
    3.3523   -0.2854    0.0000 C   0  0  0  0  0  0  0  0  0  0  0  0
    3.3523   -1.1104    0.0000 C   0  0  0  0  0  0  0  0  0  0  0  0
    2.6378   -1.5229    0.0000 C   0  0  0  0  0  0  0  0  0  0  0  0
    1.9233   -1.1104    0.0000 C   0  0  0  0  0  0  0  0  0  0  0  0
    1.1387   -1.3654    0.0000 S   0  0  0  0  0  0  0  0  0  0  0  0
   -1.4087   -1.4124    0.0000 C   0  0  0  0  0  0  0  0  0  0  0  0
   -1.8212   -2.1269    0.0000 C   0  0  0  0  0  0  0  0  0  0  0  0
   -2.6462   -2.1269    0.0000 C   0  0  0  0  0  0  0  0  0  0  0  0
   -3.0587   -1.4124    0.0000 C   0  0  0  0  0  0  0  0  0  0  0  0
   -3.8837   -1.4124    0.0000 Cl  0  0  0  0  0  0  0  0  0  0  0  0
   -2.6462   -0.6979    0.0000 C   0  0  0  0  0  0  0  0  0  0  0  0
   -1.8212   -0.6979    0.0000 C   0  0  0  0  0  0  0  0  0  0  0  0
   -1.4087    0.0165    0.0000 Cl  0  0  0  0  0  0  0  0  0  0  0  0
  1  2  2  0  0  0  0
  2  3  1  0  0  0  0
  3  4  1  0  0  0  0
  4  5  4  0  0  0  0
  5  6  4  0  0  0  0
  6  7  4  0  0  0  0
  7  8  4  0  0  0  0
  8  9  4  0  0  0  0
  9 10  4  0  0  0  0
 10 11  4  0  0  0  0
  6 11  4  0  0  0  0
 11 12  4  0  0  0  0
  4 12  4  0  0  0  0
  2 13  1  0  0  0  0
 13 14  4  0  0  0  0
 14 15  4  0  0  0  0
 15 16  4  0  0  0  0
 16 17  1  0  0  0  0
 16 18  4  0  0  0  0
 18 19  4  0  0  0  0
 13 19  4  0  0  0  0
 19 20  1  0  0  0  0
M  END
> <IC50(uM)>
1.83

> <Outcome>
0.0

> <BindingDB ID>
50971940

> <BindingDB MonomerID>
50398639

> <BindingDB Ligand Name>
CHEMBL2178109

> <Curation/DataSource>
ChEMBL

> <Article DOI>
10.1021/jm300630p

> <PMID>
22984987

> <Patent Number>
?

> <Authors>
Diao, Y; Lu, W; Jin, H; Zhu, J; Han, L; Xu, M; Gao, R; Shen, X; Zhao, Z; Liu, X; Xu, Y; Huang, J; Li, H

> <Link to Ligand in BindingDB>
http://www.bindingdb.org/bind/chemsearch/marvin/MolStructure.jsp?monomerid=50398639

> <Link to Ligand-Target Pair in BindingDB>
http://www.bindingdb.org/jsp/dbsearch/PrimarySearch_ki.jsp?energyterm=kJ/mole&tag=r21&monomerid=50398639&enzyme=Dihydroorotate+dehydrogenase&column=ki&startPg=0&Increment=50&submit=Search

> <PubChem CID>
739902

> <PubChem SID>
163347663

$$$$

  Mrv2115 07222212352D          

 35 38  0  0  0  0            999 V2000
   -5.1659    1.4455    0.0000 C   0  0  0  0  0  0  0  0  0  0  0  0
   -4.3409    1.4455    0.0000 C   0  0  0  0  0  0  0  0  0  0  0  0
   -3.9284    2.1599    0.0000 C   0  0  0  0  0  0  0  0  0  0  0  0
   -3.1034    2.1599    0.0000 C   0  0  0  0  0  0  0  0  0  0  0  0
   -2.6909    2.8744    0.0000 F   0  0  0  0  0  0  0  0  0  0  0  0
   -2.6909    1.4455    0.0000 C   0  0  0  0  0  0  0  0  0  0  0  0
   -3.1034    0.7310    0.0000 C   0  0  0  0  0  0  0  0  0  0  0  0
   -3.9284    0.7310    0.0000 C   0  0  0  0  0  0  0  0  0  0  0  0
   -4.3409    0.0165    0.0000 N   0  0  0  0  0  0  0  0  0  0  0  0
   -3.9284   -0.6979    0.0000 C   0  0  0  0  0  0  0  0  0  0  0  0
   -4.3409   -1.4124    0.0000 O   0  0  0  0  0  0  0  0  0  0  0  0
   -3.1034   -0.6979    0.0000 C   0  0  0  0  0  0  0  0  0  0  0  0
   -2.6909    0.0165    0.0000 C   0  0  0  0  0  0  0  0  0  0  0  0
   -1.8659    0.0165    0.0000 C   0  0  0  0  0  0  0  0  0  0  0  0
   -1.4534    0.7310    0.0000 F   0  0  0  0  0  0  0  0  0  0  0  0
   -1.4534   -0.6979    0.0000 C   0  0  0  0  0  0  0  0  0  0  0  0
   -0.6284   -0.6979    0.0000 N   0  0  0  0  0  0  0  0  0  0  0  0
   -0.1435   -1.3654    0.0000 N   0  0  0  0  0  0  0  0  0  0  0  0
    0.6411   -1.1104    0.0000 C   0  0  0  0  0  0  0  0  0  0  0  0
    0.6411   -0.2854    0.0000 N   0  0  0  0  0  0  0  0  0  0  0  0
   -0.1435   -0.0305    0.0000 C   0  0  0  0  0  0  0  0  0  0  0  0
   -0.3984    0.7541    0.0000 O   0  0  0  0  0  0  0  0  0  0  0  0
    1.3556    0.1271    0.0000 C   0  0  0  0  0  0  0  0  0  0  0  0
    2.0701   -0.2854    0.0000 C   0  0  0  0  0  0  0  0  0  0  0  0
    2.0701   -1.1104    0.0000 C   0  0  0  0  0  0  0  0  0  0  0  0
    1.3556   -1.5229    0.0000 C   0  0  0  0  0  0  0  0  0  0  0  0
   -1.8659   -1.4124    0.0000 C   0  0  0  0  0  0  0  0  0  0  0  0
   -2.6909   -1.4124    0.0000 C   0  0  0  0  0  0  0  0  0  0  0  0
   -3.1034   -2.1269    0.0000 O   0  0  0  0  0  0  0  0  0  0  0  0
   -2.6909   -2.8414    0.0000 C   0  0  0  0  0  0  0  0  0  0  0  0
   -1.8659   -2.8414    0.0000 C   0  0  0  0  0  0  0  0  0  0  0  0
   -3.1034   -3.5558    0.0000 C   0  0  0  0  0  0  0  0  0  0  0  0
   -3.8179   -3.1433    0.0000 F   0  0  0  0  0  0  0  0  0  0  0  0
   -2.3890   -3.9683    0.0000 F   0  0  0  0  0  0  0  0  0  0  0  0
   -3.5159   -4.2703    0.0000 F   0  0  0  0  0  0  0  0  0  0  0  0
  1  2  1  0  0  0  0
  2  3  4  0  0  0  0
  3  4  4  0  0  0  0
  4  5  1  0  0  0  0
  4  6  4  0  0  0  0
  6  7  4  0  0  0  0
  7  8  4  0  0  0  0
  2  8  4  0  0  0  0
  8  9  1  0  0  0  0
  9 10  1  0  0  0  0
 10 11  2  0  0  0  0
 10 12  1  0  0  0  0
 12 13  4  0  0  0  0
 13 14  4  0  0  0  0
 14 15  1  0  0  0  0
 14 16  4  0  0  0  0
 16 17  1  0  0  0  0
 17 18  4  0  0  0  0
 18 19  4  0  0  0  0
 19 20  4  0  0  0  0
 20 21  4  0  0  0  0
 17 21  4  0  0  0  0
 21 22  2  0  0  0  0
 20 23  1  0  0  0  0
 23 24  1  0  0  0  0
 24 25  1  0  0  0  0
 25 26  1  0  0  0  0
 19 26  1  0  0  0  0
 16 27  4  0  0  0  0
 27 28  4  0  0  0  0
 12 28  4  0  0  0  0
 28 29  1  0  0  0  0
 29 30  1  0  0  0  0
 30 31  1  0  0  0  0
 30 32  1  0  0  0  0
 32 33  1  0  0  0  0
 32 34  1  0  0  0  0
 32 35  1  0  0  0  0
M  END
> <IC50(uM)>
0.011

> <Outcome>
1.0

> <BindingDB ID>
1020458

> <BindingDB MonomerID>
490406

> <BindingDB Ligand Name>
5-fluoro-N-(4-fluoro-2-methylphenyl)-4-(3-oxo-5,6,7,8-tetrahydro[1,2,4]triazolo[4,3-a]pyridin-2(3H)-yl)-2-{[(2S)-1,1,1-trifluoropropan-2-yl]oxy}benzamide::US10968216, Example 74

> <Curation/DataSource>
US Patent

> <Article DOI>
?

> <PMID>
?

> <Patent Number>
US10968216

> <Authors>
Gradl, SN; Nguyen, D; Eis, K; Gunther, J; Stellfeld, T; Janzer, A; Christian, S; Mueller, T; Sheikh, SE; Zhou, HJ; Zhao, C; Sykes, DB; Ferrara, SJ; Liu, K; Herbert, SA; Merz, C; Niehues, M; Nising, CF; Schafer, M; Zimmermann, K; Knablein, J; Thede, K; Faupel, T

> <Link to Ligand in BindingDB>
http://www.bindingdb.org/bind/chemsearch/marvin/MolStructure.jsp?monomerid=490406

> <Link to Ligand-Target Pair in BindingDB>
http://www.bindingdb.org/jsp/dbsearch/PrimarySearch_ki.jsp?energyterm=kJ/mole&tag=r21&monomerid=490406&enzyme=Dihydroorotate+dehydrogenase&column=ki&startPg=0&Increment=50&submit=Search

> <PubChem CID>
134474500

> <PubChem SID>
447117133

$$$$

  Mrv2115 07222212352D          

 39 43  0  0  0  0            999 V2000
   -1.8659    1.4455    0.0000 C   0  0  0  0  0  0  0  0  0  0  0  0
   -2.6909    1.4455    0.0000 C   0  0  0  0  0  0  0  0  0  0  0  0
   -3.1034    0.7310    0.0000 O   0  0  0  0  0  0  0  0  0  0  0  0
   -2.6909    0.0165    0.0000 C   0  0  0  0  0  0  0  0  0  0  0  0
   -1.8659    0.0165    0.0000 C   0  0  0  0  0  0  0  0  0  0  0  0
   -1.4534   -0.6979    0.0000 C   0  0  0  0  0  0  0  0  0  0  0  0
   -0.6284   -0.6979    0.0000 N   0  0  0  0  0  0  0  0  0  0  0  0
   -0.1435   -1.3654    0.0000 N   0  0  0  0  0  0  0  0  0  0  0  0
    0.6411   -1.1104    0.0000 C   0  0  0  0  0  0  0  0  0  0  0  0
    0.6411   -0.2854    0.0000 N   0  0  0  0  0  0  0  0  0  0  0  0
   -0.1435   -0.0305    0.0000 C   0  0  0  0  0  0  0  0  0  0  0  0
   -0.3984    0.7541    0.0000 O   0  0  0  0  0  0  0  0  0  0  0  0
    1.3556    0.1271    0.0000 C   0  0  0  0  0  0  0  0  0  0  0  0
    2.0701   -0.2854    0.0000 C   0  0  0  0  0  0  0  0  0  0  0  0
    2.0701   -1.1104    0.0000 C   0  0  0  0  0  0  0  0  0  0  0  0
    1.3556   -1.5229    0.0000 C   0  0  0  0  0  0  0  0  0  0  0  0
   -1.8659   -1.4124    0.0000 C   0  0  0  0  0  0  0  0  0  0  0  0
   -1.4534   -2.1269    0.0000 F   0  0  0  0  0  0  0  0  0  0  0  0
   -2.6909   -1.4124    0.0000 C   0  0  0  0  0  0  0  0  0  0  0  0
   -3.1034   -0.6979    0.0000 C   0  0  0  0  0  0  0  0  0  0  0  0
   -3.9284   -0.6979    0.0000 C   0  0  0  0  0  0  0  0  0  0  0  0
   -4.3409    0.0165    0.0000 O   0  0  0  0  0  0  0  0  0  0  0  0
   -4.3409   -1.4124    0.0000 N   0  0  0  0  0  0  0  0  0  0  0  0
   -3.9284   -2.1269    0.0000 C   0  0  0  0  0  0  0  0  0  0  0  0
   -3.1034   -2.1269    0.0000 C   0  0  0  0  0  0  0  0  0  0  0  0
   -2.6909   -2.8414    0.0000 C   0  0  0  0  0  0  0  0  0  0  0  0
   -3.1034   -3.5558    0.0000 C   0  0  0  0  0  0  0  0  0  0  0  0
   -3.9284   -3.5558    0.0000 C   0  0  0  0  0  0  0  0  0  0  0  0
   -4.3409   -2.8414    0.0000 C   0  0  0  0  0  0  0  0  0  0  0  0
   -5.1659   -2.8414    0.0000 C   0  0  0  0  0  0  0  0  0  0  0  0
   -5.9909   -2.8414    0.0000 F   0  0  0  0  0  0  0  0  0  0  0  0
   -5.1659   -2.0164    0.0000 F   0  0  0  0  0  0  0  0  0  0  0  0
   -5.1659   -3.6664    0.0000 F   0  0  0  0  0  0  0  0  0  0  0  0
   -3.1034    2.1599    0.0000 C   0  0  0  0  0  0  0  0  0  0  0  0
   -3.9284    2.1599    0.0000 C   0  0  0  0  0  0  0  0  0  0  0  0
   -4.3409    2.8744    0.0000 C   0  0  0  0  0  0  0  0  0  0  0  0
   -3.9284    3.5889    0.0000 C   0  0  0  0  0  0  0  0  0  0  0  0
   -3.1034    3.5889    0.0000 C   0  0  0  0  0  0  0  0  0  0  0  0
   -2.6909    2.8744    0.0000 C   0  0  0  0  0  0  0  0  0  0  0  0
  1  2  1  0  0  0  0
  2  3  1  0  0  0  0
  3  4  1  0  0  0  0
  4  5  4  0  0  0  0
  5  6  4  0  0  0  0
  6  7  1  0  0  0  0
  7  8  4  0  0  0  0
  8  9  4  0  0  0  0
  9 10  4  0  0  0  0
 10 11  4  0  0  0  0
  7 11  4  0  0  0  0
 11 12  2  0  0  0  0
 10 13  1  0  0  0  0
 13 14  1  0  0  0  0
 14 15  1  0  0  0  0
 15 16  1  0  0  0  0
  9 16  1  0  0  0  0
  6 17  4  0  0  0  0
 17 18  1  0  0  0  0
 17 19  4  0  0  0  0
 19 20  4  0  0  0  0
  4 20  4  0  0  0  0
 20 21  1  0  0  0  0
 21 22  2  0  0  0  0
 21 23  1  0  0  0  0
 23 24  1  0  0  0  0
 24 25  4  0  0  0  0
 25 26  4  0  0  0  0
 26 27  4  0  0  0  0
 27 28  4  0  0  0  0
 28 29  4  0  0  0  0
 24 29  4  0  0  0  0
 29 30  1  0  0  0  0
 30 31  1  0  0  0  0
 30 32  1  0  0  0  0
 30 33  1  0  0  0  0
  2 34  1  0  0  0  0
 34 35  1  0  0  0  0
 35 36  1  0  0  0  0
 36 37  1  0  0  0  0
 37 38  1  0  0  0  0
 38 39  1  0  0  0  0
 34 39  1  0  0  0  0
M  END
> <IC50(uM)>
0.00605

> <Outcome>
1.0

> <BindingDB ID>
1020548

> <BindingDB MonomerID>
490487

> <BindingDB Ligand Name>
2-[(1S)-1-cyclohexylethoxy]-5-fluoro-4-(3-oxo-5,6,7,8-tetrahydro[1,2,4]triazolo[4,3-a]pyridin-2(3H)-yl)-N-[2-(trifluoromethyl)phenyl]benzamide::US10968216, Example 155

> <Curation/DataSource>
US Patent

> <Article DOI>
?

> <PMID>
?

> <Patent Number>
US10968216

> <Authors>
Gradl, SN; Nguyen, D; Eis, K; Gunther, J; Stellfeld, T; Janzer, A; Christian, S; Mueller, T; Sheikh, SE; Zhou, HJ; Zhao, C; Sykes, DB; Ferrara, SJ; Liu, K; Herbert, SA; Merz, C; Niehues, M; Nising, CF; Schafer, M; Zimmermann, K; Knablein, J; Thede, K; Faupel, T

> <Link to Ligand in BindingDB>
http://www.bindingdb.org/bind/chemsearch/marvin/MolStructure.jsp?monomerid=490487

> <Link to Ligand-Target Pair in BindingDB>
http://www.bindingdb.org/jsp/dbsearch/PrimarySearch_ki.jsp?energyterm=kJ/mole&tag=r21&monomerid=490487&enzyme=Dihydroorotate+dehydrogenase&column=ki&startPg=0&Increment=50&submit=Search

> <PubChem CID>
153291222

> <PubChem SID>
447117214

$$$$

  Mrv2115 07222212352D          

 31 33  0  0  0  0            999 V2000
   -3.4714   -7.5203    0.0000 C   0  0  0  0  0  0  0  0  0  0  0  0
   -2.7569   -7.9328    0.0000 C   0  0  0  0  0  0  0  0  0  0  0  0
   -2.0425   -7.5203    0.0000 C   0  0  0  0  0  0  0  0  0  0  0  0
   -1.3280   -7.9328    0.0000 C   0  0  0  0  0  0  0  0  0  0  0  0
   -0.6135   -7.5203    0.0000 C   0  0  0  0  0  0  0  0  0  0  0  0
    0.1010   -7.9328    0.0000 C   0  0  0  0  0  0  0  0  0  0  0  0
    0.8154   -7.5203    0.0000 O   0  0  0  0  0  0  0  0  0  0  0  0
    1.5299   -7.9328    0.0000 C   0  0  0  0  0  0  0  0  0  0  0  0
    1.5299   -8.7578    0.0000 O   0  0  0  0  0  0  0  0  0  0  0  0
    2.2444   -7.5203    0.0000 C   0  0  0  0  0  0  0  0  0  0  0  0
    2.2444   -6.6953    0.0000 C   0  0  0  0  0  0  0  0  0  0  0  0
    2.9588   -6.2828    0.0000 C   0  0  0  0  0  0  0  0  0  0  0  0
    3.6733   -6.6953    0.0000 C   0  0  0  0  0  0  0  0  0  0  0  0
    3.6733   -7.5203    0.0000 C   0  0  0  0  0  0  0  0  0  0  0  0
    2.9588   -7.9328    0.0000 C   0  0  0  0  0  0  0  0  0  0  0  0
    2.9588   -8.7578    0.0000 C   0  0  0  0  0  0  0  0  0  0  0  0
    2.2444   -9.1703    0.0000 N   0  0  0  0  0  0  0  0  0  0  0  0
    2.2444   -9.9953    0.0000 N   0  0  0  0  0  0  0  0  0  0  0  0
    1.5299  -10.4078    0.0000 C   0  0  0  0  0  0  0  0  0  0  0  0
    2.9588  -10.4078    0.0000 C   0  0  0  0  0  0  0  0  0  0  0  0
    3.7125  -10.0722    0.0000 N   0  0  0  0  0  0  0  0  0  0  0  0
    4.2645  -10.6853    0.0000 C   0  0  0  0  0  0  0  0  0  0  0  0
    5.0850  -10.5991    0.0000 C   0  0  0  0  0  0  0  0  0  0  0  0
    5.4206   -9.8454    0.0000 C   0  0  0  0  0  0  0  0  0  0  0  0
    6.2411   -9.7592    0.0000 C   0  0  0  0  0  0  0  0  0  0  0  0
    6.7260  -10.4266    0.0000 C   0  0  0  0  0  0  0  0  0  0  0  0
    6.3904  -11.1803    0.0000 C   0  0  0  0  0  0  0  0  0  0  0  0
    5.5699  -11.2665    0.0000 C   0  0  0  0  0  0  0  0  0  0  0  0
    5.2344  -12.0202    0.0000 Cl  0  0  0  0  0  0  0  0  0  0  0  0
    3.8520  -11.3998    0.0000 C   0  0  0  0  0  0  0  0  0  0  0  0
    3.0451  -11.2283    0.0000 S   0  0  0  0  0  0  0  0  0  0  0  0
  1  2  1  0  0  0  0
  2  3  1  0  0  0  0
  3  4  1  0  0  0  0
  4  5  1  0  0  0  0
  5  6  1  0  0  0  0
  6  7  1  0  0  0  0
  7  8  1  0  0  0  0
  8  9  2  0  0  0  0
  8 10  1  0  0  0  0
 10 11  4  0  0  0  0
 11 12  4  0  0  0  0
 12 13  4  0  0  0  0
 13 14  4  0  0  0  0
 14 15  4  0  0  0  0
 10 15  4  0  0  0  0
 15 16  1  0  0  0  0
 16 17  2  0  0  0  0
 17 18  1  0  0  0  0
 18 19  1  0  0  0  0
 18 20  1  0  0  0  0
 20 21  4  0  0  0  0
 21 22  4  0  0  0  0
 22 23  1  0  0  0  0
 23 24  4  0  0  0  0
 24 25  4  0  0  0  0
 25 26  4  0  0  0  0
 26 27  4  0  0  0  0
 27 28  4  0  0  0  0
 23 28  4  0  0  0  0
 28 29  1  0  0  0  0
 22 30  4  0  0  0  0
 30 31  4  0  0  0  0
 20 31  4  0  0  0  0
M  END
> <IC50(uM)>
50.0

> <Outcome>
0.0

> <BindingDB ID>
1001154

> <BindingDB MonomerID>
482840

> <BindingDB Ligand Name>
US10919869, No.  B7

> <Curation/DataSource>
US Patent

> <Article DOI>
?

> <PMID>
?

> <Patent Number>
US10919869

> <Authors>
Li, H; Xu, Y; Wang, R; Zhao, Z; Song, W; Xu, L

> <Link to Ligand in BindingDB>
http://www.bindingdb.org/bind/chemsearch/marvin/MolStructure.jsp?monomerid=482840

> <Link to Ligand-Target Pair in BindingDB>
http://www.bindingdb.org/jsp/dbsearch/PrimarySearch_ki.jsp?energyterm=kJ/mole&tag=r21&monomerid=482840&enzyme=Dihydroorotate+dehydrogenase&column=ki&startPg=0&Increment=50&submit=Search

> <PubChem CID>
132157925

> <PubChem SID>
443551980

$$$$

  Mrv2115 07222212352D          

 23 26  0  0  0  0            999 V2000
    1.8906   -6.1972    0.0000 C   0  0  0  0  0  0  0  0  0  0  0  0
    2.4426   -5.5841    0.0000 O   0  0  0  0  0  0  0  0  0  0  0  0
    2.1877   -4.7995    0.0000 C   0  0  0  0  0  0  0  0  0  0  0  0
    1.3807   -4.6280    0.0000 C   0  0  0  0  0  0  0  0  0  0  0  0
    1.1258   -3.8434    0.0000 C   0  0  0  0  0  0  0  0  0  0  0  0
    1.6778   -3.2303    0.0000 C   0  0  0  0  0  0  0  0  0  0  0  0
    2.4848   -3.4018    0.0000 C   0  0  0  0  0  0  0  0  0  0  0  0
    3.0368   -2.7887    0.0000 N   0  0  0  0  0  0  0  0  0  0  0  0
    2.7819   -2.0041    0.0000 C   0  0  0  0  0  0  0  0  0  0  0  0
    1.9749   -1.8326    0.0000 N   0  0  0  0  0  0  0  0  0  0  0  0
    1.7200   -1.0479    0.0000 C   0  0  0  0  0  0  0  0  0  0  0  0
    0.9130   -0.8764    0.0000 N   0  0  0  0  0  0  0  0  0  0  0  0
    2.2720   -0.4349    0.0000 N   0  0  0  0  0  0  0  0  0  0  0  0
    3.0790   -0.6064    0.0000 C   0  0  0  0  0  0  0  0  0  0  0  0
    3.7464   -0.1215    0.0000 C   0  0  0  0  0  0  0  0  0  0  0  0
    4.4139   -0.6064    0.0000 C   0  0  0  0  0  0  0  0  0  0  0  0
    5.2208   -0.4349    0.0000 C   0  0  0  0  0  0  0  0  0  0  0  0
    5.7729   -1.0479    0.0000 C   0  0  0  0  0  0  0  0  0  0  0  0
    5.5179   -1.8326    0.0000 C   0  0  0  0  0  0  0  0  0  0  0  0
    4.7110   -2.0041    0.0000 C   0  0  0  0  0  0  0  0  0  0  0  0
    4.1589   -1.3910    0.0000 C   0  0  0  0  0  0  0  0  0  0  0  0
    3.3339   -1.3910    0.0000 C   0  0  0  0  0  0  0  0  0  0  0  0
    2.7397   -4.1864    0.0000 C   0  0  0  0  0  0  0  0  0  0  0  0
  1  2  1  0  0  0  0
  2  3  1  0  0  0  0
  3  4  4  0  0  0  0
  4  5  4  0  0  0  0
  5  6  4  0  0  0  0
  6  7  4  0  0  0  0
  7  8  1  0  0  0  0
  8  9  1  0  0  0  0
  9 10  4  0  0  0  0
 10 11  4  0  0  0  0
 11 12  1  0  0  0  0
 11 13  4  0  0  0  0
 13 14  4  0  0  0  0
 14 15  4  0  0  0  0
 15 16  4  0  0  0  0
 16 17  4  0  0  0  0
 17 18  4  0  0  0  0
 18 19  4  0  0  0  0
 19 20  4  0  0  0  0
 20 21  4  0  0  0  0
 16 21  4  0  0  0  0
 21 22  4  0  0  0  0
  9 22  4  0  0  0  0
 14 22  1  0  0  0  0
  7 23  4  0  0  0  0
  3 23  4  0  0  0  0
M  STY  1   1 DAT
M  SAL   1  1  10
M  SDT   1 MRV_IMPLICIT_H                                        
M  SDD   1     0.5304   -0.4125    DR    ALL  0       0  
M  SED   1 IMPL_H1
M  END
> <IC50(uM)>
200.0

> <Outcome>
0.0

> <BindingDB ID>
50944653

> <BindingDB MonomerID>
50387411

> <BindingDB Ligand Name>
CHEMBL2047251

> <Curation/DataSource>
ChEMBL

> <Article DOI>
10.1016/j.bmc.2012.05.068

> <PMID>
22739090

> <Patent Number>
?

> <Authors>
Gangjee, A; Zhao, Y; Ihnat, MA; Thorpe, JE; Bailey-Downs, LC; Kisliuk, RL

> <Link to Ligand in BindingDB>
http://www.bindingdb.org/bind/chemsearch/marvin/MolStructure.jsp?monomerid=50387411

> <Link to Ligand-Target Pair in BindingDB>
http://www.bindingdb.org/jsp/dbsearch/PrimarySearch_ki.jsp?energyterm=kJ/mole&tag=r21&monomerid=50387411&enzyme=Dihydroorotate+dehydrogenase&column=ki&startPg=0&Increment=50&submit=Search

> <PubChem CID>
90982258

> <PubChem SID>
160866494

$$$$

  Mrv2115 07222212352D          

 18 20  0  0  0  0            999 V2000
    4.0668    2.3479    0.0000 C   0  0  0  0  0  0  0  0  0  0  0  0
    3.3523    1.9354    0.0000 C   0  0  0  0  0  0  0  0  0  0  0  0
    3.3523    1.1104    0.0000 C   0  0  0  0  0  0  0  0  0  0  0  0
    2.6378    0.6979    0.0000 C   0  0  0  0  0  0  0  0  0  0  0  0
    2.6378   -0.1271    0.0000 N   0  0  0  0  0  0  0  0  0  0  0  0
    1.9233   -0.5396    0.0000 C   0  0  0  0  0  0  0  0  0  0  0  0
    1.9233   -1.3646    0.0000 C   0  0  0  0  0  0  0  0  0  0  0  0
    1.2089   -1.7771    0.0000 C   0  0  0  0  0  0  0  0  0  0  0  0
    0.4944   -1.3646    0.0000 C   0  0  0  0  0  0  0  0  0  0  0  0
    0.4944   -0.5396    0.0000 C   0  0  0  0  0  0  0  0  0  0  0  0
   -0.2201   -0.1271    0.0000 Cl  0  0  0  0  0  0  0  0  0  0  0  0
    1.2089   -0.1271    0.0000 C   0  0  0  0  0  0  0  0  0  0  0  0
    1.9233    1.1104    0.0000 N   0  0  0  0  0  0  0  0  0  0  0  0
    1.1387    0.8555    0.0000 N   0  0  0  0  0  0  0  0  0  0  0  0
    0.6538    1.5229    0.0000 C   0  0  0  0  0  0  0  0  0  0  0  0
    1.1387    2.1904    0.0000 N   0  0  0  0  0  0  0  0  0  0  0  0
    1.9233    1.9354    0.0000 C   0  0  0  0  0  0  0  0  0  0  0  0
    2.6378    2.3479    0.0000 N   0  0  0  0  0  0  0  0  0  0  0  0
  1  2  1  0  0  0  0
  2  3  4  0  0  0  0
  3  4  4  0  0  0  0
  4  5  1  0  0  0  0
  5  6  1  0  0  0  0
  6  7  4  0  0  0  0
  7  8  4  0  0  0  0
  8  9  4  0  0  0  0
  9 10  4  0  0  0  0
 10 11  1  0  0  0  0
 10 12  4  0  0  0  0
  6 12  4  0  0  0  0
  4 13  4  0  0  0  0
 13 14  4  0  0  0  0
 14 15  4  0  0  0  0
 15 16  4  0  0  0  0
 16 17  4  0  0  0  0
 13 17  4  0  0  0  0
 17 18  4  0  0  0  0
  2 18  4  0  0  0  0
M  END
> <IC50(uM)>
100.0

> <Outcome>
0.0

> <BindingDB ID>
52445

> <BindingDB MonomerID>
28810

> <BindingDB Ligand Name>
N-(3-chlorophenyl)-5-methyl-[1,2,4]triazolo[1,5-a]pyrimidin-7-amine::triazolopyrimidine-based compound, DSM75

> <Curation/DataSource>
Curated from the literature by BindingDB

> <Article DOI>
10.1021/jm801343r

> <PMID>
19296651

> <Patent Number>
?

> <Authors>
Gujjar, R; Marwaha, A; El Mazouni, F; White, J; White, KL; Creason, S; Shackleford, DM; Baldwin, J; Charman, WN; Buckner, FS; Charman, S; Rathod, PK; Phillips, MA

> <Link to Ligand in BindingDB>
http://www.bindingdb.org/bind/chemsearch/marvin/MolStructure.jsp?monomerid=28810

> <Link to Ligand-Target Pair in BindingDB>
http://www.bindingdb.org/jsp/dbsearch/PrimarySearch_ki.jsp?energyterm=kJ/mole&tag=r21&monomerid=28810&enzyme=Dihydroorotate+Dehydrogenase+%28DHODH%29&column=ki&startPg=0&Increment=50&submit=Search

> <PubChem CID>
517858

> <PubChem SID>
58097998

$$$$

  Mrv2115 07222212352D          

 24 25  0  0  0  0            999 V2000
   -3.8137   -4.2356    0.0000 C   0  0  0  0  0  0  0  0  0  0  0  0
   -3.0993   -3.8231    0.0000 C   0  0  0  0  0  0  0  0  0  0  0  0
   -2.3848   -4.2356    0.0000 C   0  0  0  0  0  0  0  0  0  0  0  0
   -1.6703   -3.8231    0.0000 N   0  0  0  0  0  0  0  0  0  0  0  0
   -0.9559   -4.2356    0.0000 C   0  0  0  0  0  0  0  0  0  0  0  0
   -0.9559   -5.0606    0.0000 O   0  0  0  0  0  0  0  0  0  0  0  0
   -0.2414   -3.8231    0.0000 C   0  0  0  0  0  0  0  0  0  0  0  0
   -0.1552   -3.0026    0.0000 N   0  0  0  0  0  0  0  0  0  0  0  0
    0.6518   -2.8311    0.0000 C   0  0  0  0  0  0  0  0  0  0  0  0
    0.9874   -2.0774    0.0000 C   0  0  0  0  0  0  0  0  0  0  0  0
    1.0643   -3.5456    0.0000 C   0  0  0  0  0  0  0  0  0  0  0  0
    1.8848   -3.6318    0.0000 C   0  0  0  0  0  0  0  0  0  0  0  0
    2.3697   -2.9644    0.0000 C   0  0  0  0  0  0  0  0  0  0  0  0
    2.0342   -2.2107    0.0000 C   0  0  0  0  0  0  0  0  0  0  0  0
    2.5191   -1.5432    0.0000 C   0  0  0  0  0  0  0  0  0  0  0  0
    3.3396   -1.6295    0.0000 C   0  0  0  0  0  0  0  0  0  0  0  0
    3.8245   -0.9620    0.0000 C   0  0  0  0  0  0  0  0  0  0  0  0
    4.3094   -0.2946    0.0000 F   0  0  0  0  0  0  0  0  0  0  0  0
    4.4919   -1.4470    0.0000 F   0  0  0  0  0  0  0  0  0  0  0  0
    3.1570   -0.4771    0.0000 F   0  0  0  0  0  0  0  0  0  0  0  0
    3.6751   -2.3832    0.0000 N   0  0  0  0  0  0  0  0  0  0  0  0
    3.1902   -3.0506    0.0000 C   0  0  0  0  0  0  0  0  0  0  0  0
    0.5123   -4.1587    0.0000 C   0  0  0  0  0  0  0  0  0  0  0  0
    0.6838   -4.9656    0.0000 C   0  0  0  0  0  0  0  0  0  0  0  0
  1  2  1  0  0  0  0
  2  3  1  0  0  0  0
  3  4  1  0  0  0  0
  4  5  1  0  0  0  0
  5  6  2  0  0  0  0
  5  7  1  0  0  0  0
  7  8  4  0  0  0  0
  8  9  4  0  0  0  0
  9 10  1  0  0  0  0
  9 11  4  0  0  0  0
 11 12  1  0  0  0  0
 12 13  1  0  0  0  0
 13 14  4  0  0  0  0
 14 15  4  0  0  0  0
 15 16  4  0  0  0  0
 16 17  1  0  0  0  0
 17 18  1  0  0  0  0
 17 19  1  0  0  0  0
 17 20  1  0  0  0  0
 16 21  4  0  0  0  0
 21 22  4  0  0  0  0
 13 22  4  0  0  0  0
 11 23  4  0  0  0  0
  7 23  4  0  0  0  0
 23 24  1  0  0  0  0
M  STY  1   1 DAT
M  SAL   1  1   8
M  SDT   1 MRV_IMPLICIT_H                                        
M  SDD   1     0.5304   -0.4125    DR    ALL  0       0  
M  SED   1 IMPL_H1
M  END
> <IC50(uM)>
100.0

> <Outcome>
0.0

> <BindingDB ID>
51330089

> <BindingDB MonomerID>
50538337

> <BindingDB Ligand Name>
CHEMBL4644974

> <Curation/DataSource>
ChEMBL

> <Article DOI>
10.1021/acs.jmedchem.0c00311

> <PMID>
32248693

> <Patent Number>
?

> <Authors>
Kokkonda, S; Deng, X; White, KL; El Mazouni, F; White, J; Shackleford, DM; Katneni, K; Chiu, FCK; Barker, H; McLaren, J; Crighton, E; Chen, G; Angulo-Barturen, I; Jimenez-Diaz, MB; Ferrer, S; Huertas-Valentin, L; Martinez-Martinez, MS; Lafuente-Monasterio, MJ; Chittimalla, R; Shahi, SP; Wittlin, S; Waterson, D; Burrows, JN; Matthews, D; Tomchick, D; Rathod, PK; Palmer, MJ; Charman, SA; Phillips, MA

> <Link to Ligand in BindingDB>
http://www.bindingdb.org/bind/chemsearch/marvin/MolStructure.jsp?monomerid=50538337

> <Link to Ligand-Target Pair in BindingDB>
http://www.bindingdb.org/jsp/dbsearch/PrimarySearch_ki.jsp?energyterm=kJ/mole&tag=r21&monomerid=50538337&enzyme=Dihydroorotate+dehydrogenase&column=ki&startPg=0&Increment=50&submit=Search

> <PubChem CID>
156018495

> <PubChem SID>
442139900

$$$$

  Mrv2115 07222212352D          

 37 41  0  0  0  0            999 V2000
    3.5724   -3.7125    0.0000 C   0  0  0  0  0  0  0  0  0  0  0  0
    2.8579   -4.1250    0.0000 C   0  0  0  0  0  0  0  0  0  0  0  0
    2.1434   -3.7125    0.0000 O   0  0  0  0  0  0  0  0  0  0  0  0
    1.4289   -4.1250    0.0000 C   0  0  0  0  0  0  0  0  0  0  0  0
    1.4289   -4.9500    0.0000 C   0  0  0  0  0  0  0  0  0  0  0  0
    0.7145   -5.3625    0.0000 C   0  0  0  0  0  0  0  0  0  0  0  0
    0.7145   -6.1875    0.0000 N   0  0  0  0  0  0  0  0  0  0  0  0
    0.0470   -6.6724    0.0000 N   0  0  0  0  0  0  0  0  0  0  0  0
    0.3020   -7.4570    0.0000 C   0  0  0  0  0  0  0  0  0  0  0  0
    1.1270   -7.4570    0.0000 N   0  0  0  0  0  0  0  0  0  0  0  0
    1.3819   -6.6724    0.0000 C   0  0  0  0  0  0  0  0  0  0  0  0
    2.1665   -6.4175    0.0000 O   0  0  0  0  0  0  0  0  0  0  0  0
    1.5395   -8.1715    0.0000 C   0  0  0  0  0  0  0  0  0  0  0  0
    1.1270   -8.8860    0.0000 C   0  0  0  0  0  0  0  0  0  0  0  0
    0.3020   -8.8860    0.0000 C   0  0  0  0  0  0  0  0  0  0  0  0
   -0.1105   -8.1715    0.0000 C   0  0  0  0  0  0  0  0  0  0  0  0
    0.0000   -4.9500    0.0000 C   0  0  0  0  0  0  0  0  0  0  0  0
   -0.7145   -5.3625    0.0000 F   0  0  0  0  0  0  0  0  0  0  0  0
    0.0000   -4.1250    0.0000 C   0  0  0  0  0  0  0  0  0  0  0  0
    0.7145   -3.7125    0.0000 C   0  0  0  0  0  0  0  0  0  0  0  0
    0.7145   -2.8875    0.0000 C   0  0  0  0  0  0  0  0  0  0  0  0
    0.0000   -2.4750    0.0000 O   0  0  0  0  0  0  0  0  0  0  0  0
    1.4289   -2.4750    0.0000 N   0  0  0  0  0  0  0  0  0  0  0  0
    1.4289   -1.6500    0.0000 C   0  0  0  0  0  0  0  0  0  0  0  0
    0.7145   -1.2375    0.0000 C   0  0  0  0  0  0  0  0  0  0  0  0
    0.7145   -0.4125    0.0000 C   0  0  0  0  0  0  0  0  0  0  0  0
    1.4289    0.0000    0.0000 C   0  0  0  0  0  0  0  0  0  0  0  0
    2.1434   -0.4125    0.0000 C   0  0  0  0  0  0  0  0  0  0  0  0
    2.8579    0.0000    0.0000 N   0  0  0  0  0  0  0  0  0  0  0  0
    3.5724   -0.4125    0.0000 C   0  0  0  0  0  0  0  0  0  0  0  0
    3.5724   -1.2375    0.0000 C   0  0  0  0  0  0  0  0  0  0  0  0
    2.8579   -1.6500    0.0000 C   0  0  0  0  0  0  0  0  0  0  0  0
    2.1434   -1.2375    0.0000 C   0  0  0  0  0  0  0  0  0  0  0  0
    2.8579   -4.9500    0.0000 C   0  0  0  0  0  0  0  0  0  0  0  0
    2.0329   -4.9500    0.0000 F   0  0  0  0  0  0  0  0  0  0  0  0
    3.6829   -4.9500    0.0000 F   0  0  0  0  0  0  0  0  0  0  0  0
    2.8579   -5.7750    0.0000 F   0  0  0  0  0  0  0  0  0  0  0  0
  1  2  1  0  0  0  0
  2  3  1  0  0  0  0
  3  4  1  0  0  0  0
  4  5  4  0  0  0  0
  5  6  4  0  0  0  0
  6  7  1  0  0  0  0
  7  8  4  0  0  0  0
  8  9  4  0  0  0  0
  9 10  4  0  0  0  0
 10 11  4  0  0  0  0
  7 11  4  0  0  0  0
 11 12  2  0  0  0  0
 10 13  1  0  0  0  0
 13 14  1  0  0  0  0
 14 15  1  0  0  0  0
 15 16  1  0  0  0  0
  9 16  1  0  0  0  0
  6 17  4  0  0  0  0
 17 18  1  0  0  0  0
 17 19  4  0  0  0  0
 19 20  4  0  0  0  0
  4 20  4  0  0  0  0
 20 21  1  0  0  0  0
 21 22  2  0  0  0  0
 21 23  1  0  0  0  0
 23 24  1  0  0  0  0
 24 25  4  0  0  0  0
 25 26  4  0  0  0  0
 26 27  4  0  0  0  0
 27 28  4  0  0  0  0
 28 29  4  0  0  0  0
 29 30  4  0  0  0  0
 30 31  4  0  0  0  0
 31 32  4  0  0  0  0
 32 33  4  0  0  0  0
 24 33  4  0  0  0  0
 28 33  4  0  0  0  0
  2 34  1  0  0  0  0
 34 35  1  0  0  0  0
 34 36  1  0  0  0  0
 34 37  1  0  0  0  0
M  END
> <IC50(uM)>
3.8

> <Outcome>
0.0

> <BindingDB ID>
1020482

> <BindingDB MonomerID>
490430

> <BindingDB Ligand Name>
5-fluoro-4-(3-oxo-5,6,7,8-tetrahydro[1,2,4]triazolo[4,3-a]pyridin-2(3H)-yl)-N-(quinolin-5-yl)-2-{[(2S)-1,1,1-trifluoropropan-2-yl]oxy}benzamide::US10968216, Example 98

> <Curation/DataSource>
US Patent

> <Article DOI>
?

> <PMID>
?

> <Patent Number>
US10968216

> <Authors>
Gradl, SN; Nguyen, D; Eis, K; Gunther, J; Stellfeld, T; Janzer, A; Christian, S; Mueller, T; Sheikh, SE; Zhou, HJ; Zhao, C; Sykes, DB; Ferrara, SJ; Liu, K; Herbert, SA; Merz, C; Niehues, M; Nising, CF; Schafer, M; Zimmermann, K; Knablein, J; Thede, K; Faupel, T

> <Link to Ligand in BindingDB>
http://www.bindingdb.org/bind/chemsearch/marvin/MolStructure.jsp?monomerid=490430

> <Link to Ligand-Target Pair in BindingDB>
http://www.bindingdb.org/jsp/dbsearch/PrimarySearch_ki.jsp?energyterm=kJ/mole&tag=r21&monomerid=490430&enzyme=Dihydroorotate+dehydrogenase&column=ki&startPg=0&Increment=50&submit=Search

> <PubChem CID>
134474511

> <PubChem SID>
447117157

$$$$

  Mrv2115 07222212352D          

 18 19  0  0  0  0            999 V2000
    0.3323   -4.5956    0.0000 C   0  0  0  0  0  0  0  0  0  0  0  0
    1.0468   -4.1831    0.0000 C   0  0  0  0  0  0  0  0  0  0  0  0
    1.7613   -4.5956    0.0000 C   0  0  0  0  0  0  0  0  0  0  0  0
    2.4757   -4.1831    0.0000 N   0  0  0  0  0  0  0  0  0  0  0  0
    3.1902   -4.5956    0.0000 C   0  0  0  0  0  0  0  0  0  0  0  0
    3.1902   -5.4206    0.0000 O   0  0  0  0  0  0  0  0  0  0  0  0
    3.9047   -4.1831    0.0000 C   0  0  0  0  0  0  0  0  0  0  0  0
    3.9909   -3.3626    0.0000 C   0  0  0  0  0  0  0  0  0  0  0  0
    4.7979   -3.1911    0.0000 C   0  0  0  0  0  0  0  0  0  0  0  0
    5.2104   -3.9056    0.0000 C   0  0  0  0  0  0  0  0  0  0  0  0
    6.0309   -3.9918    0.0000 N   0  0  0  0  0  0  0  0  0  0  0  0
    6.5158   -3.3244    0.0000 C   0  0  0  0  0  0  0  0  0  0  0  0
    7.3363   -3.4106    0.0000 C   0  0  0  0  0  0  0  0  0  0  0  0
    7.6718   -4.1643    0.0000 N   0  0  0  0  0  0  0  0  0  0  0  0
    8.4923   -4.2505    0.0000 C   0  0  0  0  0  0  0  0  0  0  0  0
    7.1869   -4.8317    0.0000 C   0  0  0  0  0  0  0  0  0  0  0  0
    6.3664   -4.7455    0.0000 C   0  0  0  0  0  0  0  0  0  0  0  0
    4.6583   -4.5187    0.0000 S   0  0  0  0  0  0  0  0  0  0  0  0
  1  2  1  0  0  0  0
  2  3  1  0  0  0  0
  3  4  1  0  0  0  0
  4  5  1  0  0  0  0
  5  6  2  0  0  0  0
  5  7  1  0  0  0  0
  7  8  4  0  0  0  0
  8  9  4  0  0  0  0
  9 10  4  0  0  0  0
 10 11  1  0  0  0  0
 11 12  1  0  0  0  0
 12 13  1  0  0  0  0
 13 14  1  0  0  0  0
 14 15  1  0  0  0  0
 14 16  1  0  0  0  0
 16 17  1  0  0  0  0
 11 17  1  0  0  0  0
 10 18  4  0  0  0  0
  7 18  4  0  0  0  0
M  END
> <IC50(uM)>
30.0

> <Outcome>
0.0

> <BindingDB ID>
248387

> <BindingDB MonomerID>
120283

> <BindingDB Ligand Name>
US8703811, 10

> <Curation/DataSource>
US Patent

> <Article DOI>
?

> <PMID>
?

> <Patent Number>
US8703811

> <Authors>
Bastos, C; Booker, ML; Celatka, CA; Clardy, JC; Cortese, J; Patel, VP; Skerlj, R; Wiegand, RC; Wirth, DF

> <Link to Ligand in BindingDB>
http://www.bindingdb.org/bind/chemsearch/marvin/MolStructure.jsp?monomerid=120283

> <Link to Ligand-Target Pair in BindingDB>
http://www.bindingdb.org/jsp/dbsearch/PrimarySearch_ki.jsp?energyterm=kJ/mole&tag=r21&monomerid=120283&enzyme=Dihydroorotate+dehydrogenase&column=ki&startPg=0&Increment=50&submit=Search

> <PubChem CID>
44480860

> <PubChem SID>
220231077

$$$$

  Mrv2115 07222212352D          

 29 33  0  0  0  0            999 V2000
    2.5559   -1.8243    0.0000 O   0  0  0  0  0  0  0  0  0  0  0  0
    2.5559   -2.6493    0.0000 C   0  0  0  0  0  0  0  0  0  0  0  0
    1.8414   -3.0618    0.0000 O   0  0  0  0  0  0  0  0  0  0  0  0
    3.2704   -3.0618    0.0000 C   0  0  0  0  0  0  0  0  0  0  0  0
    3.2704   -3.8868    0.0000 C   0  0  0  0  0  0  0  0  0  0  0  0
    3.9849   -4.2993    0.0000 C   0  0  0  0  0  0  0  0  0  0  0  0
    3.9849   -5.1243    0.0000 C   0  0  0  0  0  0  0  0  0  0  0  0
    4.3974   -5.8388    0.0000 C   0  0  0  0  0  0  0  0  0  0  0  0
    3.5724   -5.8388    0.0000 C   0  0  0  0  0  0  0  0  0  0  0  0
    4.6993   -3.8868    0.0000 C   0  0  0  0  0  0  0  0  0  0  0  0
    4.6993   -3.0618    0.0000 C   0  0  0  0  0  0  0  0  0  0  0  0
    3.9849   -2.6493    0.0000 C   0  0  0  0  0  0  0  0  0  0  0  0
    3.9849   -1.8243    0.0000 N   0  0  0  0  0  0  0  0  0  0  0  0
    4.6993   -1.4118    0.0000 C   0  0  0  0  0  0  0  0  0  0  0  0
    4.6993   -0.5868    0.0000 C   0  0  0  0  0  0  0  0  0  0  0  0
    5.4138   -0.1743    0.0000 N   0  0  0  0  0  0  0  0  0  0  0  0
    6.1283   -0.5868    0.0000 C   0  0  0  0  0  0  0  0  0  0  0  0
    6.8427   -0.1743    0.0000 C   0  0  0  0  0  0  0  0  0  0  0  0
    6.8427    0.6507    0.0000 C   0  0  0  0  0  0  0  0  0  0  0  0
    7.5572    1.0632    0.0000 C   0  0  0  0  0  0  0  0  0  0  0  0
    8.2717    0.6507    0.0000 C   0  0  0  0  0  0  0  0  0  0  0  0
    8.2717   -0.1743    0.0000 C   0  0  0  0  0  0  0  0  0  0  0  0
    8.9862   -0.5868    0.0000 O   0  0  0  0  0  0  0  0  0  0  0  0
    8.9862   -1.4118    0.0000 C   0  0  0  0  0  0  0  0  0  0  0  0
    9.3987   -2.1263    0.0000 C   0  0  0  0  0  0  0  0  0  0  0  0
    8.5737   -2.1263    0.0000 C   0  0  0  0  0  0  0  0  0  0  0  0
    7.5572   -0.5868    0.0000 C   0  0  0  0  0  0  0  0  0  0  0  0
    6.1283   -1.4118    0.0000 N   0  0  0  0  0  0  0  0  0  0  0  0
    5.4138   -1.8243    0.0000 C   0  0  0  0  0  0  0  0  0  0  0  0
  1  2  2  0  0  0  0
  2  3  1  0  0  0  0
  2  4  1  0  0  0  0
  4  5  4  0  0  0  0
  5  6  4  0  0  0  0
  6  7  1  0  0  0  0
  7  8  1  0  0  0  0
  8  9  1  0  0  0  0
  7  9  1  0  0  0  0
  6 10  4  0  0  0  0
 10 11  4  0  0  0  0
 11 12  4  0  0  0  0
  4 12  4  0  0  0  0
 12 13  1  0  0  0  0
 13 14  1  0  0  0  0
 14 15  4  0  0  0  0
 15 16  4  0  0  0  0
 16 17  4  0  0  0  0
 17 18  1  0  0  0  0
 18 19  4  0  0  0  0
 19 20  4  0  0  0  0
 20 21  4  0  0  0  0
 21 22  4  0  0  0  0
 22 23  1  0  0  0  0
 23 24  1  0  0  0  0
 24 25  1  0  0  0  0
 25 26  1  0  0  0  0
 24 26  1  0  0  0  0
 22 27  4  0  0  0  0
 18 27  4  0  0  0  0
 17 28  4  0  0  0  0
 28 29  4  0  0  0  0
 14 29  4  0  0  0  0
M  END
> <IC50(uM)>
0.114

> <Outcome>
1.0

> <BindingDB ID>
219985

> <BindingDB MonomerID>
102455

> <BindingDB Ligand Name>
US8536165, 22

> <Curation/DataSource>
US Patent

> <Article DOI>
?

> <PMID>
?

> <Patent Number>
US8536165

> <Authors>
Castro Palomino Laria, JC; Terricabras Belart, E; Erra Sola, M; Navarro Romero, E; Fonquerna Pou, S; Cardus Figueras, A; Lozoya Toribio, ME

> <Link to Ligand in BindingDB>
http://www.bindingdb.org/bind/chemsearch/marvin/MolStructure.jsp?monomerid=102455

> <Link to Ligand-Target Pair in BindingDB>
http://www.bindingdb.org/jsp/dbsearch/PrimarySearch_ki.jsp?energyterm=kJ/mole&tag=r21&monomerid=102455&enzyme=Dihydroorotate+dehydrogenase&column=ki&startPg=0&Increment=50&submit=Search

> <PubChem CID>
25186722

> <PubChem SID>
172097746

$$$$

  Mrv2115 07222212352D          

 31 34  0  0  0  0            999 V2000
    5.0013   10.4401    0.0000 C   0  0  0  0  0  0  0  0  0  0  0  0
    4.2868   10.0276    0.0000 O   0  0  0  0  0  0  0  0  0  0  0  0
    4.2868    9.2026    0.0000 C   0  0  0  0  0  0  0  0  0  0  0  0
    5.0013    8.7901    0.0000 C   0  0  0  0  0  0  0  0  0  0  0  0
    5.0013    7.9651    0.0000 C   0  0  0  0  0  0  0  0  0  0  0  0
    4.2868    7.5526    0.0000 C   0  0  0  0  0  0  0  0  0  0  0  0
    3.5724    7.9651    0.0000 C   0  0  0  0  0  0  0  0  0  0  0  0
    2.8579    7.5526    0.0000 C   0  0  0  0  0  0  0  0  0  0  0  0
    2.1434    7.9651    0.0000 N   0  0  0  0  0  0  0  0  0  0  0  0
    1.4289    7.5526    0.0000 C   0  0  0  0  0  0  0  0  0  0  0  0
    1.4289    6.7276    0.0000 C   0  0  0  0  0  0  0  0  0  0  0  0
    0.7145    6.3151    0.0000 N   0  0  0  0  0  0  0  0  0  0  0  0
    0.7145    5.4901    0.0000 C   0  0  0  0  0  0  0  0  0  0  0  0
    1.4289    5.0776    0.0000 C   0  0  0  0  0  0  0  0  0  0  0  0
    1.4289    4.2526    0.0000 C   0  0  0  0  0  0  0  0  0  0  0  0
    0.7145    3.8401    0.0000 C   0  0  0  0  0  0  0  0  0  0  0  0
    0.7145    3.0151    0.0000 C   0  0  0  0  0  0  0  0  0  0  0  0
    1.1270    2.3007    0.0000 C   0  0  0  0  0  0  0  0  0  0  0  0
    0.3020    2.3007    0.0000 C   0  0  0  0  0  0  0  0  0  0  0  0
    0.0000    4.2526    0.0000 C   0  0  0  0  0  0  0  0  0  0  0  0
    0.0000    5.0776    0.0000 C   0  0  0  0  0  0  0  0  0  0  0  0
   -0.7145    5.4901    0.0000 C   0  0  0  0  0  0  0  0  0  0  0  0
   -0.7145    6.3151    0.0000 O   0  0  0  0  0  0  0  0  0  0  0  0
   -1.4289    5.0776    0.0000 O   0  0  0  0  0  0  0  0  0  0  0  0
    2.1434    6.3151    0.0000 C   0  0  0  0  0  0  0  0  0  0  0  0
    2.8579    6.7276    0.0000 C   0  0  0  0  0  0  0  0  0  0  0  0
    3.5724    6.3151    0.0000 C   0  0  0  0  0  0  0  0  0  0  0  0
    4.2868    5.9026    0.0000 F   0  0  0  0  0  0  0  0  0  0  0  0
    3.1599    5.6007    0.0000 F   0  0  0  0  0  0  0  0  0  0  0  0
    3.9849    7.0296    0.0000 F   0  0  0  0  0  0  0  0  0  0  0  0
    3.5724    8.7901    0.0000 C   0  0  0  0  0  0  0  0  0  0  0  0
  1  2  1  0  0  0  0
  2  3  1  0  0  0  0
  3  4  4  0  0  0  0
  4  5  4  0  0  0  0
  5  6  4  0  0  0  0
  6  7  4  0  0  0  0
  7  8  1  0  0  0  0
  8  9  4  0  0  0  0
  9 10  4  0  0  0  0
 10 11  4  0  0  0  0
 11 12  1  0  0  0  0
 12 13  1  0  0  0  0
 13 14  4  0  0  0  0
 14 15  4  0  0  0  0
 15 16  4  0  0  0  0
 16 17  1  0  0  0  0
 17 18  1  0  0  0  0
 18 19  1  0  0  0  0
 17 19  1  0  0  0  0
 16 20  4  0  0  0  0
 20 21  4  0  0  0  0
 13 21  4  0  0  0  0
 21 22  1  0  0  0  0
 22 23  2  0  0  0  0
 22 24  1  0  0  0  0
 11 25  4  0  0  0  0
 25 26  4  0  0  0  0
  8 26  4  0  0  0  0
 26 27  1  0  0  0  0
 27 28  1  0  0  0  0
 27 29  1  0  0  0  0
 27 30  1  0  0  0  0
  7 31  4  0  0  0  0
  3 31  4  0  0  0  0
M  END
> <IC50(uM)>
0.007

> <Outcome>
1.0

> <BindingDB ID>
220013

> <BindingDB MonomerID>
102483

> <BindingDB Ligand Name>
US8536165, 82

> <Curation/DataSource>
US Patent

> <Article DOI>
?

> <PMID>
?

> <Patent Number>
US8536165

> <Authors>
Castro Palomino Laria, JC; Terricabras Belart, E; Erra Sola, M; Navarro Romero, E; Fonquerna Pou, S; Cardus Figueras, A; Lozoya Toribio, ME

> <Link to Ligand in BindingDB>
http://www.bindingdb.org/bind/chemsearch/marvin/MolStructure.jsp?monomerid=102483

> <Link to Ligand-Target Pair in BindingDB>
http://www.bindingdb.org/jsp/dbsearch/PrimarySearch_ki.jsp?energyterm=kJ/mole&tag=r21&monomerid=102483&enzyme=Dihydroorotate+dehydrogenase&column=ki&startPg=0&Increment=50&submit=Search

> <PubChem CID>
56968468

> <PubChem SID>
172097774

$$$$

  Mrv2115 07222212352D          

 20 22  0  0  0  0            999 V2000
    0.7145   -0.4125    0.0000 O   0  0  0  0  0  0  0  0  0  0  0  0
    0.7145   -1.2375    0.0000 C   0  0  0  0  0  0  0  0  0  0  0  0
    1.3819   -1.7224    0.0000 S   0  0  0  0  0  0  0  0  0  0  0  0
    1.1270   -2.5070    0.0000 N   0  0  0  0  0  0  0  0  0  0  0  0
    1.6119   -3.1745    0.0000 C   0  0  0  0  0  0  0  0  0  0  0  0
    2.4324   -3.0882    0.0000 C   0  0  0  0  0  0  0  0  0  0  0  0
    2.9173   -3.7557    0.0000 C   0  0  0  0  0  0  0  0  0  0  0  0
    2.5817   -4.5094    0.0000 C   0  0  0  0  0  0  0  0  0  0  0  0
    1.7613   -4.5956    0.0000 C   0  0  0  0  0  0  0  0  0  0  0  0
    1.2763   -3.9282    0.0000 C   0  0  0  0  0  0  0  0  0  0  0  0
    0.3020   -2.5070    0.0000 C   0  0  0  0  0  0  0  0  0  0  0  0
   -0.1830   -3.1745    0.0000 O   0  0  0  0  0  0  0  0  0  0  0  0
    0.0470   -1.7224    0.0000 N   0  0  0  0  0  0  0  0  0  0  0  0
   -0.7376   -1.4675    0.0000 C   0  0  0  0  0  0  0  0  0  0  0  0
   -1.3507   -2.0195    0.0000 C   0  0  0  0  0  0  0  0  0  0  0  0
   -2.1353   -1.7646    0.0000 C   0  0  0  0  0  0  0  0  0  0  0  0
   -2.3068   -0.9576    0.0000 C   0  0  0  0  0  0  0  0  0  0  0  0
   -3.0915   -0.7027    0.0000 F   0  0  0  0  0  0  0  0  0  0  0  0
   -1.6937   -0.4056    0.0000 C   0  0  0  0  0  0  0  0  0  0  0  0
   -0.9091   -0.6605    0.0000 C   0  0  0  0  0  0  0  0  0  0  0  0
  1  2  2  0  0  0  0
  2  3  4  0  0  0  0
  3  4  4  0  0  0  0
  4  5  1  0  0  0  0
  5  6  4  0  0  0  0
  6  7  4  0  0  0  0
  7  8  4  0  0  0  0
  8  9  4  0  0  0  0
  9 10  4  0  0  0  0
  5 10  4  0  0  0  0
  4 11  4  0  0  0  0
 11 12  2  0  0  0  0
 11 13  4  0  0  0  0
  2 13  4  0  0  0  0
 13 14  1  0  0  0  0
 14 15  4  0  0  0  0
 15 16  4  0  0  0  0
 16 17  4  0  0  0  0
 17 18  1  0  0  0  0
 17 19  4  0  0  0  0
 19 20  4  0  0  0  0
 14 20  4  0  0  0  0
M  END
> <IC50(uM)>
100.0

> <Outcome>
0.0

> <BindingDB ID>
51292546

> <BindingDB MonomerID>
50526856

> <BindingDB Ligand Name>
CHEMBL4469092

> <Curation/DataSource>
ChEMBL

> <Article DOI>
10.1016/j.ejmech.2019.111681

> <PMID>
31557612

> <Patent Number>
?

> <Authors>
Boschi, D; Pippione, AC; Sainas, S; Lolli, ML

> <Link to Ligand in BindingDB>
http://www.bindingdb.org/bind/chemsearch/marvin/MolStructure.jsp?monomerid=50526856

> <Link to Ligand-Target Pair in BindingDB>
http://www.bindingdb.org/jsp/dbsearch/PrimarySearch_ki.jsp?energyterm=kJ/mole&tag=r21&monomerid=50526856&enzyme=Dihydroorotate+dehydrogenase&column=ki&startPg=0&Increment=50&submit=Search

> <PubChem CID>
10356750

> <PubChem SID>
440735438

$$$$

  Mrv2115 07222212352D          

 34 36  0  0  0  0            999 V2000
    0.7145   -3.7125    0.0000 C   0  0  0  0  0  0  0  0  0  0  0  0
    1.4289   -4.1250    0.0000 N   0  0  0  0  0  0  0  0  0  0  0  0
    1.4289   -4.9500    0.0000 C   0  0  0  0  0  0  0  0  0  0  0  0
    0.7615   -5.4349    0.0000 N   0  0  0  0  0  0  0  0  0  0  0  0
    1.0164   -6.2195    0.0000 N   0  0  0  0  0  0  0  0  0  0  0  0
    0.5315   -6.8870    0.0000 C   0  0  0  0  0  0  0  0  0  0  0  0
    0.8671   -7.6407    0.0000 C   0  0  0  0  0  0  0  0  0  0  0  0
    0.3822   -8.3081    0.0000 C   0  0  0  0  0  0  0  0  0  0  0  0
    0.7177   -9.0618    0.0000 O   0  0  0  0  0  0  0  0  0  0  0  0
    1.5382   -9.1480    0.0000 C   0  0  0  0  0  0  0  0  0  0  0  0
    2.0231   -8.4806    0.0000 C   0  0  0  0  0  0  0  0  0  0  0  0
    1.8738   -9.9017    0.0000 C   0  0  0  0  0  0  0  0  0  0  0  0
    1.1201  -10.2372    0.0000 F   0  0  0  0  0  0  0  0  0  0  0  0
    2.6274   -9.5661    0.0000 F   0  0  0  0  0  0  0  0  0  0  0  0
    2.2093  -10.6554    0.0000 F   0  0  0  0  0  0  0  0  0  0  0  0
   -0.4383   -8.2219    0.0000 C   0  0  0  0  0  0  0  0  0  0  0  0
   -0.9232   -8.8893    0.0000 C   0  0  0  0  0  0  0  0  0  0  0  0
   -1.7437   -8.8031    0.0000 O   0  0  0  0  0  0  0  0  0  0  0  0
   -0.5877   -9.6430    0.0000 N   0  0  0  0  0  0  0  0  0  0  0  0
   -1.0726  -10.3104    0.0000 C   0  0  0  0  0  0  0  0  0  0  0  0
   -0.7371  -11.0641    0.0000 C   0  0  0  0  0  0  0  0  0  0  0  0
    0.0834  -11.1503    0.0000 F   0  0  0  0  0  0  0  0  0  0  0  0
   -1.2220  -11.7315    0.0000 C   0  0  0  0  0  0  0  0  0  0  0  0
   -2.0425  -11.6453    0.0000 C   0  0  0  0  0  0  0  0  0  0  0  0
   -2.3780  -10.8916    0.0000 C   0  0  0  0  0  0  0  0  0  0  0  0
   -1.8931  -10.2242    0.0000 C   0  0  0  0  0  0  0  0  0  0  0  0
   -2.2287   -9.4705    0.0000 F   0  0  0  0  0  0  0  0  0  0  0  0
   -0.7739   -7.4682    0.0000 C   0  0  0  0  0  0  0  0  0  0  0  0
   -0.2890   -6.8007    0.0000 C   0  0  0  0  0  0  0  0  0  0  0  0
   -0.6245   -6.0471    0.0000 F   0  0  0  0  0  0  0  0  0  0  0  0
    1.8414   -6.2195    0.0000 C   0  0  0  0  0  0  0  0  0  0  0  0
    2.3264   -6.8870    0.0000 O   0  0  0  0  0  0  0  0  0  0  0  0
    2.0964   -5.4349    0.0000 N   0  0  0  0  0  0  0  0  0  0  0  0
    2.8810   -5.1800    0.0000 C   0  0  0  0  0  0  0  0  0  0  0  0
  1  2  1  0  0  0  0
  2  3  1  0  0  0  0
  3  4  4  0  0  0  0
  4  5  4  0  0  0  0
  5  6  1  0  0  0  0
  6  7  4  0  0  0  0
  7  8  4  0  0  0  0
  8  9  1  0  0  0  0
  9 10  1  0  0  0  0
 10 11  1  0  0  0  0
 10 12  1  0  0  0  0
 12 13  1  0  0  0  0
 12 14  1  0  0  0  0
 12 15  1  0  0  0  0
  8 16  4  0  0  0  0
 16 17  1  0  0  0  0
 17 18  2  0  0  0  0
 17 19  1  0  0  0  0
 19 20  1  0  0  0  0
 20 21  4  0  0  0  0
 21 22  1  0  0  0  0
 21 23  4  0  0  0  0
 23 24  4  0  0  0  0
 24 25  4  0  0  0  0
 25 26  4  0  0  0  0
 20 26  4  0  0  0  0
 26 27  1  0  0  0  0
 16 28  4  0  0  0  0
 28 29  4  0  0  0  0
  6 29  4  0  0  0  0
 29 30  1  0  0  0  0
  5 31  4  0  0  0  0
 31 32  2  0  0  0  0
 31 33  4  0  0  0  0
  3 33  4  0  0  0  0
 33 34  1  0  0  0  0
M  END
> <IC50(uM)>
0.7

> <Outcome>
1.0

> <BindingDB ID>
1098713; 972559

> <BindingDB MonomerID>
470433

> <BindingDB Ligand Name>
N-(2,6-difluorophenyl)-5-fluoro-4-[4-methyl-3-(methylamino)-5-oxo-4,5-dihydro-1H-1,2,4-triazol-1-yl]-2-{[(2S)-1,1,1-trifluoropropan-2-yl]oxy}benzamide::US10815215, Example 101::US11130745, Example 101; N-(2,6-difluorophenyl)-5-fluoro-4-[4-methyl-3-(methylamino)-5-oxo-4,5-dihydro-1H-1,2,4-triazol-1-yl]-2-{[(2S)-1,1,1-trifluoropropan-2-yl]oxy}benzamide::US10815215, Example 101

> <Curation/DataSource>
US Patent

> <Article DOI>
?

> <PMID>
?

> <Patent Number>
US11130745; US10815215

> <Authors>
Gradl, SN; Nguyen, D; Eis, K; Gunther, J; Stellfeld, T; Janzer, A; Christian, S; Muller, T; Sheikh, SE; Sykes, DB; Ferrara, SJ; Krober, M; Merz, C; Niehues, M; Schafer, M; Zimmermann, K; Nising, CF; Gradl, SN; Nguyen, D; Eis, K; Gunther, J; Stellfeld, T; Janzer, A; Christian, S; Muller, T; Sheikh, SE; Zhou, HJ; Zhao, C; Sykes, DB; Ferrara, SJ; Liu, K; Krober, M; Merz, C; Niehues, M; Schafer, M; Zimmermann, K; Nising, CF

> <Link to Ligand in BindingDB>
http://www.bindingdb.org/bind/chemsearch/marvin/MolStructure.jsp?monomerid=470433

> <Link to Ligand-Target Pair in BindingDB>
http://www.bindingdb.org/jsp/dbsearch/PrimarySearch_ki.jsp?energyterm=kJ/mole&tag=r21&monomerid=470433&enzyme=Dihydroorotate+dehydrogenase&column=ki&startPg=0&Increment=50&submit=Search

> <PubChem CID>
134470363

> <PubChem SID>
441609610

$$$$

  Mrv2115 07222212352D          

 31 34  0  0  0  0            999 V2000
   -0.1712   -0.6979    0.0000 C   0  0  0  0  0  0  0  0  0  0  0  0
    0.6538   -0.6979    0.0000 C   0  0  0  0  0  0  0  0  0  0  0  0
    1.1387   -0.0305    0.0000 N   0  0  0  0  0  0  0  0  0  0  0  0
    1.9233   -0.2854    0.0000 C   0  0  0  0  0  0  0  0  0  0  0  0
    2.6378    0.1271    0.0000 C   0  0  0  0  0  0  0  0  0  0  0  0
    2.6378    0.9521    0.0000 C   0  0  0  0  0  0  0  0  0  0  0  0
    3.3523    1.3646    0.0000 O   0  0  0  0  0  0  0  0  0  0  0  0
    1.9233    1.3646    0.0000 O   0  0  0  0  0  0  0  0  0  0  0  0
    3.3523   -0.2854    0.0000 C   0  0  0  0  0  0  0  0  0  0  0  0
    3.3523   -1.1104    0.0000 C   0  0  0  0  0  0  0  0  0  0  0  0
    4.0668   -1.5229    0.0000 C   0  0  0  0  0  0  0  0  0  0  0  0
    4.7812   -1.1104    0.0000 C   0  0  0  0  0  0  0  0  0  0  0  0
    5.4957   -1.5229    0.0000 C   0  0  0  0  0  0  0  0  0  0  0  0
    5.4957   -2.3479    0.0000 C   0  0  0  0  0  0  0  0  0  0  0  0
    6.2102   -2.7604    0.0000 C   0  0  0  0  0  0  0  0  0  0  0  0
    6.9246   -2.3479    0.0000 C   0  0  0  0  0  0  0  0  0  0  0  0
    7.6391   -2.7604    0.0000 C   0  0  0  0  0  0  0  0  0  0  0  0
    7.6391   -3.5854    0.0000 C   0  0  0  0  0  0  0  0  0  0  0  0
    6.9246   -3.9979    0.0000 C   0  0  0  0  0  0  0  0  0  0  0  0
    6.9246   -4.8229    0.0000 C   0  0  0  0  0  0  0  0  0  0  0  0
    6.2102   -5.2354    0.0000 N   0  0  0  0  0  0  0  0  0  0  0  0
    6.2102   -6.0604    0.0000 C   0  0  0  0  0  0  0  0  0  0  0  0
    6.2102   -6.8854    0.0000 C   0  0  0  0  0  0  0  0  0  0  0  0
    5.3852   -6.0604    0.0000 C   0  0  0  0  0  0  0  0  0  0  0  0
    7.0352   -6.0604    0.0000 C   0  0  0  0  0  0  0  0  0  0  0  0
    6.2102   -3.5854    0.0000 C   0  0  0  0  0  0  0  0  0  0  0  0
    4.7812   -2.7604    0.0000 C   0  0  0  0  0  0  0  0  0  0  0  0
    4.0668   -2.3479    0.0000 C   0  0  0  0  0  0  0  0  0  0  0  0
    2.6378   -1.5229    0.0000 C   0  0  0  0  0  0  0  0  0  0  0  0
    1.9233   -1.1104    0.0000 C   0  0  0  0  0  0  0  0  0  0  0  0
    1.1387   -1.3654    0.0000 N   0  0  0  0  0  0  0  0  0  0  0  0
  1  2  1  0  0  0  0
  2  3  4  0  0  0  0
  3  4  4  0  0  0  0
  4  5  4  0  0  0  0
  5  6  1  0  0  0  0
  6  7  2  0  0  0  0
  6  8  1  0  0  0  0
  5  9  4  0  0  0  0
  9 10  4  0  0  0  0
 10 11  1  0  0  0  0
 11 12  4  0  0  0  0
 12 13  4  0  0  0  0
 13 14  4  0  0  0  0
 14 15  1  0  0  0  0
 15 16  4  0  0  0  0
 16 17  4  0  0  0  0
 17 18  4  0  0  0  0
 18 19  4  0  0  0  0
 19 20  1  0  0  0  0
 20 21  1  0  0  0  0
 21 22  1  0  0  0  0
 22 23  1  0  0  0  0
 22 24  1  0  0  0  0
 22 25  1  0  0  0  0
 19 26  4  0  0  0  0
 15 26  4  0  0  0  0
 14 27  4  0  0  0  0
 27 28  4  0  0  0  0
 11 28  4  0  0  0  0
 10 29  4  0  0  0  0
 29 30  4  0  0  0  0
  4 30  4  0  0  0  0
 30 31  4  0  0  0  0
  2 31  4  0  0  0  0
M  STY  1   1 DAT
M  SAL   1  1  31
M  SDT   1 MRV_IMPLICIT_H                                        
M  SDD   1     0.5304   -0.4125    DR    ALL  0       0  
M  SED   1 IMPL_H1
M  END
> <IC50(uM)>
0.055

> <Outcome>
1.0

> <BindingDB ID>
1045595

> <BindingDB MonomerID>
501653

> <BindingDB Ligand Name>
US11028054, Example 39

> <Curation/DataSource>
US Patent

> <Article DOI>
?

> <PMID>
?

> <Patent Number>
US11028054

> <Authors>
Thunuguntla, SS; Hosahalli, S; Panigrahi, SK; Schwarz, M; Arit, M

> <Link to Ligand in BindingDB>
http://www.bindingdb.org/bind/chemsearch/marvin/MolStructure.jsp?monomerid=501653

> <Link to Ligand-Target Pair in BindingDB>
http://www.bindingdb.org/jsp/dbsearch/PrimarySearch_ki.jsp?energyterm=kJ/mole&tag=r21&monomerid=501653&enzyme=Dihydroorotate+dehydrogenase&column=ki&startPg=0&Increment=50&submit=Search

> <PubChem CID>
?

> <PubChem SID>
?

$$$$

  Mrv2115 07222212352D          

 27 29  0  0  0  0            999 V2000
    4.0668    2.3479    0.0000 C   0  0  0  0  0  0  0  0  0  0  0  0
    3.3523    1.9354    0.0000 C   0  0  0  0  0  0  0  0  0  0  0  0
    3.3523    1.1104    0.0000 C   0  0  0  0  0  0  0  0  0  0  0  0
    2.6378    0.6979    0.0000 C   0  0  0  0  0  0  0  0  0  0  0  0
    2.6378   -0.1271    0.0000 N   0  0  0  0  0  0  0  0  0  0  0  0
    3.3523   -0.5396    0.0000 C   0  0  0  0  0  0  0  0  0  0  0  0
    4.0668   -0.1271    0.0000 C   0  0  0  0  0  0  0  0  0  0  0  0
    4.7812   -0.5396    0.0000 C   0  0  0  0  0  0  0  0  0  0  0  0
    5.4957   -0.1271    0.0000 F   0  0  0  0  0  0  0  0  0  0  0  0
    4.7812   -1.3646    0.0000 C   0  0  0  0  0  0  0  0  0  0  0  0
    5.4957   -1.7771    0.0000 C   0  0  0  0  0  0  0  0  0  0  0  0
    6.2102   -2.1896    0.0000 F   0  0  0  0  0  0  0  0  0  0  0  0
    5.9082   -1.0626    0.0000 F   0  0  0  0  0  0  0  0  0  0  0  0
    5.0832   -2.4915    0.0000 F   0  0  0  0  0  0  0  0  0  0  0  0
    4.0668   -1.7771    0.0000 C   0  0  0  0  0  0  0  0  0  0  0  0
    4.0668   -2.6021    0.0000 F   0  0  0  0  0  0  0  0  0  0  0  0
    3.3523   -1.3646    0.0000 C   0  0  0  0  0  0  0  0  0  0  0  0
    1.9233    1.1104    0.0000 N   0  0  0  0  0  0  0  0  0  0  0  0
    1.1387    0.8555    0.0000 N   0  0  0  0  0  0  0  0  0  0  0  0
    0.6538    1.5229    0.0000 C   0  0  0  0  0  0  0  0  0  0  0  0
   -0.1712    1.5229    0.0000 C   0  0  0  0  0  0  0  0  0  0  0  0
   -0.9962    1.5229    0.0000 F   0  0  0  0  0  0  0  0  0  0  0  0
   -0.1712    2.3479    0.0000 F   0  0  0  0  0  0  0  0  0  0  0  0
   -0.1712    0.6979    0.0000 F   0  0  0  0  0  0  0  0  0  0  0  0
    1.1387    2.1904    0.0000 N   0  0  0  0  0  0  0  0  0  0  0  0
    1.9233    1.9354    0.0000 C   0  0  0  0  0  0  0  0  0  0  0  0
    2.6378    2.3479    0.0000 N   0  0  0  0  0  0  0  0  0  0  0  0
  1  2  1  0  0  0  0
  2  3  4  0  0  0  0
  3  4  4  0  0  0  0
  4  5  1  0  0  0  0
  5  6  1  0  0  0  0
  6  7  4  0  0  0  0
  7  8  4  0  0  0  0
  8  9  1  0  0  0  0
  8 10  4  0  0  0  0
 10 11  1  0  0  0  0
 11 12  1  0  0  0  0
 11 13  1  0  0  0  0
 11 14  1  0  0  0  0
 10 15  4  0  0  0  0
 15 16  1  0  0  0  0
 15 17  4  0  0  0  0
  6 17  4  0  0  0  0
  4 18  4  0  0  0  0
 18 19  4  0  0  0  0
 19 20  4  0  0  0  0
 20 21  1  0  0  0  0
 21 22  1  0  0  0  0
 21 23  1  0  0  0  0
 21 24  1  0  0  0  0
 20 25  4  0  0  0  0
 25 26  4  0  0  0  0
 18 26  4  0  0  0  0
 26 27  4  0  0  0  0
  2 27  4  0  0  0  0
M  END
> <IC50(uM)>
1.85

> <Outcome>
0.0

> <BindingDB ID>
50101954; 50101961

> <BindingDB MonomerID>
50018006

> <BindingDB Ligand Name>
CHEMBL3289672::US9238653, Table 5, Compound 49

> <Curation/DataSource>
ChEMBL

> <Article DOI>
10.1021/jm500481t

> <PMID>
24801997

> <Patent Number>
?

> <Authors>
Deng, X; Kokkonda, S; El Mazouni, F; White, J; Burrows, JN; Kaminsky, W; Charman, SA; Matthews, D; Rathod, PK; Phillips, MA

> <Link to Ligand in BindingDB>
http://www.bindingdb.org/bind/chemsearch/marvin/MolStructure.jsp?monomerid=50018006

> <Link to Ligand-Target Pair in BindingDB>
http://www.bindingdb.org/jsp/dbsearch/PrimarySearch_ki.jsp?energyterm=kJ/mole&tag=r21&monomerid=50018006&enzyme=Dihydroorotate+dehydrogenase&column=ki&startPg=0&Increment=50&submit=Search

> <PubChem CID>
51031042

> <PubChem SID>
103929182

$$$$

  Mrv2115 07222212352D          

 27 30  0  0  0  0            999 V2000
    7.6391    6.0604    0.0000 C   0  0  0  0  0  0  0  0  0  0  0  0
    6.9246    5.6479    0.0000 O   0  0  0  0  0  0  0  0  0  0  0  0
    6.9246    4.8229    0.0000 C   0  0  0  0  0  0  0  0  0  0  0  0
    7.6391    4.4104    0.0000 C   0  0  0  0  0  0  0  0  0  0  0  0
    7.6391    3.5854    0.0000 C   0  0  0  0  0  0  0  0  0  0  0  0
    6.9246    3.1729    0.0000 C   0  0  0  0  0  0  0  0  0  0  0  0
    6.2102    3.5854    0.0000 C   0  0  0  0  0  0  0  0  0  0  0  0
    5.4957    3.1729    0.0000 C   0  0  0  0  0  0  0  0  0  0  0  0
    5.4957    2.3479    0.0000 C   0  0  0  0  0  0  0  0  0  0  0  0
    4.7812    1.9354    0.0000 C   0  0  0  0  0  0  0  0  0  0  0  0
    4.0668    2.3479    0.0000 C   0  0  0  0  0  0  0  0  0  0  0  0
    3.3523    1.9354    0.0000 C   0  0  0  0  0  0  0  0  0  0  0  0
    3.3523    1.1104    0.0000 C   0  0  0  0  0  0  0  0  0  0  0  0
    2.6378    0.6979    0.0000 C   0  0  0  0  0  0  0  0  0  0  0  0
    2.6378   -0.1271    0.0000 C   0  0  0  0  0  0  0  0  0  0  0  0
    1.9233   -0.5396    0.0000 O   0  0  0  0  0  0  0  0  0  0  0  0
    3.3523   -0.5396    0.0000 O   0  0  0  0  0  0  0  0  0  0  0  0
    1.9233    1.1104    0.0000 C   0  0  0  0  0  0  0  0  0  0  0  0
    1.1387    0.8555    0.0000 N   0  0  0  0  0  0  0  0  0  0  0  0
    0.6538    1.5229    0.0000 C   0  0  0  0  0  0  0  0  0  0  0  0
   -0.1712    1.5229    0.0000 C   0  0  0  0  0  0  0  0  0  0  0  0
    1.1387    2.1904    0.0000 N   0  0  0  0  0  0  0  0  0  0  0  0
    1.9233    1.9354    0.0000 C   0  0  0  0  0  0  0  0  0  0  0  0
    2.6378    2.3479    0.0000 C   0  0  0  0  0  0  0  0  0  0  0  0
    4.0668    3.1729    0.0000 C   0  0  0  0  0  0  0  0  0  0  0  0
    4.7812    3.5854    0.0000 C   0  0  0  0  0  0  0  0  0  0  0  0
    6.2102    4.4104    0.0000 C   0  0  0  0  0  0  0  0  0  0  0  0
  1  2  1  0  0  0  0
  2  3  1  0  0  0  0
  3  4  4  0  0  0  0
  4  5  4  0  0  0  0
  5  6  4  0  0  0  0
  6  7  4  0  0  0  0
  7  8  1  0  0  0  0
  8  9  4  0  0  0  0
  9 10  4  0  0  0  0
 10 11  4  0  0  0  0
 11 12  1  0  0  0  0
 12 13  4  0  0  0  0
 13 14  4  0  0  0  0
 14 15  1  0  0  0  0
 15 16  2  0  0  0  0
 15 17  1  0  0  0  0
 14 18  4  0  0  0  0
 18 19  4  0  0  0  0
 19 20  4  0  0  0  0
 20 21  1  0  0  0  0
 20 22  4  0  0  0  0
 22 23  4  0  0  0  0
 18 23  4  0  0  0  0
 23 24  4  0  0  0  0
 12 24  4  0  0  0  0
 11 25  4  0  0  0  0
 25 26  4  0  0  0  0
  8 26  4  0  0  0  0
  7 27  4  0  0  0  0
  3 27  4  0  0  0  0
M  STY  1   1 DAT
M  SAL   1  1  22
M  SDT   1 MRV_IMPLICIT_H                                        
M  SDD   1     0.5304   -0.4125    DR    ALL  0       0  
M  SED   1 IMPL_H1
M  END
> <IC50(uM)>
0.055

> <Outcome>
1.0

> <BindingDB ID>
1045585

> <BindingDB MonomerID>
501643

> <BindingDB Ligand Name>
US11028054, Example 10

> <Curation/DataSource>
US Patent

> <Article DOI>
?

> <PMID>
?

> <Patent Number>
US11028054

> <Authors>
Thunuguntla, SS; Hosahalli, S; Panigrahi, SK; Schwarz, M; Arit, M

> <Link to Ligand in BindingDB>
http://www.bindingdb.org/bind/chemsearch/marvin/MolStructure.jsp?monomerid=501643

> <Link to Ligand-Target Pair in BindingDB>
http://www.bindingdb.org/jsp/dbsearch/PrimarySearch_ki.jsp?energyterm=kJ/mole&tag=r21&monomerid=501643&enzyme=Dihydroorotate+dehydrogenase&column=ki&startPg=0&Increment=50&submit=Search

> <PubChem CID>
?

> <PubChem SID>
?

$$$$

  Mrv2115 07222212352D          

 33 36  0  0  0  0            999 V2000
    0.7145   -2.8875    0.0000 C   0  0  0  0  0  0  0  0  0  0  0  0
    0.0000   -2.4750    0.0000 C   0  0  0  0  0  0  0  0  0  0  0  0
   -0.7145   -2.8875    0.0000 C   0  0  0  0  0  0  0  0  0  0  0  0
   -1.4289   -2.4750    0.0000 C   0  0  0  0  0  0  0  0  0  0  0  0
   -1.4289   -1.6500    0.0000 N   0  0  0  0  0  0  0  0  0  0  0  0
   -0.7145   -1.2375    0.0000 C   0  0  0  0  0  0  0  0  0  0  0  0
   -0.7145   -0.4125    0.0000 Cl  0  0  0  0  0  0  0  0  0  0  0  0
    0.0000   -1.6500    0.0000 C   0  0  0  0  0  0  0  0  0  0  0  0
    0.7145   -1.2375    0.0000 C   0  0  0  0  0  0  0  0  0  0  0  0
    0.7145   -0.4125    0.0000 C   0  0  0  0  0  0  0  0  0  0  0  0
    1.4289    0.0000    0.0000 C   0  0  0  0  0  0  0  0  0  0  0  0
    1.4289    0.8250    0.0000 C   0  0  0  0  0  0  0  0  0  0  0  0
    2.1434    1.2375    0.0000 C   0  0  0  0  0  0  0  0  0  0  0  0
    0.7145    1.2375    0.0000 C   0  0  0  0  0  0  0  0  0  0  0  0
    2.1434   -0.4125    0.0000 C   0  0  0  0  0  0  0  0  0  0  0  0
    2.8579    0.0000    0.0000 C   0  0  0  0  0  0  0  0  0  0  0  0
    3.5724   -0.4125    0.0000 C   0  0  0  0  0  0  0  0  0  0  0  0
    4.2868   -0.0000    0.0000 C   0  0  0  0  0  0  0  0  0  0  0  0
    4.3731    0.8205    0.0000 N   0  0  0  0  0  0  0  0  0  0  0  0
    5.1800    0.9920    0.0000 C   0  0  0  0  0  0  0  0  0  0  0  0
    5.5156    1.7457    0.0000 C   0  0  0  0  0  0  0  0  0  0  0  0
    5.8511    2.4994    0.0000 C   0  0  0  0  0  0  0  0  0  0  0  0
    6.2693    1.4101    0.0000 C   0  0  0  0  0  0  0  0  0  0  0  0
    4.7619    2.0812    0.0000 O   0  0  0  0  0  0  0  0  0  0  0  0
    5.5925    0.2775    0.0000 N   0  0  0  0  0  0  0  0  0  0  0  0
    6.4130    0.1913    0.0000 C   0  0  0  0  0  0  0  0  0  0  0  0
    5.0405   -0.3356    0.0000 N   0  0  0  0  0  0  0  0  0  0  0  0
    3.5724   -1.2375    0.0000 C   0  0  0  0  0  0  0  0  0  0  0  0
    4.2868   -1.6500    0.0000 F   0  0  0  0  0  0  0  0  0  0  0  0
    2.8579   -1.6500    0.0000 C   0  0  0  0  0  0  0  0  0  0  0  0
    2.1434   -1.2375    0.0000 N   0  0  0  0  0  0  0  0  0  0  0  0
    1.4289   -1.6500    0.0000 C   0  0  0  0  0  0  0  0  0  0  0  0
    1.4289   -2.4750    0.0000 O   0  0  0  0  0  0  0  0  0  0  0  0
  1  2  1  0  0  0  0
  2  3  4  0  0  0  0
  3  4  4  0  0  0  0
  4  5  4  0  0  0  0
  5  6  4  0  0  0  0
  6  7  1  0  0  0  0
  6  8  4  0  0  0  0
  2  8  4  0  0  0  0
  8  9  1  0  0  0  0
  9 10  4  0  0  0  0
 10 11  4  0  0  0  0
 11 12  1  0  0  0  0
 12 13  1  0  0  0  0
 12 14  1  0  0  0  0
 11 15  4  0  0  0  0
 15 16  4  0  0  0  0
 16 17  4  0  0  0  0
 17 18  1  0  0  0  0
 18 19  4  0  0  0  0
 19 20  4  0  0  0  0
 20 21  1  0  0  0  0
 21 22  1  0  0  0  0
 21 23  1  0  0  0  0
 21 24  1  0  0  0  0
 20 25  4  0  0  0  0
 25 26  1  0  0  0  0
 25 27  4  0  0  0  0
 18 27  4  0  0  0  0
 17 28  4  0  0  0  0
 28 29  1  0  0  0  0
 28 30  4  0  0  0  0
 30 31  4  0  0  0  0
 15 31  4  0  0  0  0
 31 32  4  0  0  0  0
  9 32  4  0  0  0  0
 32 33  2  0  0  0  0
M  END
> <IC50(uM)>
0.013

> <Outcome>
1.0

> <BindingDB ID>
1121405

> <BindingDB MonomerID>
530471

> <BindingDB Ligand Name>
3-(2-Chloro-4-methylpyridin-3-yl)-7-fluoro-8-(5-(2-hydroxypropan-2-yl)-1-methyl- 1H-1,2,4-triazol-3-yl)-1-isopropyl-4H-quinolizin-4-one.::WO2022070071, Example 9

> <Curation/DataSource>
Curated from the literature by BindingDB

> <Article DOI>
?

> <PMID>
WO2022070071

> <Patent Number>
?

> <Authors>
Lindsey, D; Scott, K

> <Link to Ligand in BindingDB>
http://www.bindingdb.org/bind/chemsearch/marvin/MolStructure.jsp?monomerid=530471

> <Link to Ligand-Target Pair in BindingDB>
http://www.bindingdb.org/jsp/dbsearch/PrimarySearch_ki.jsp?energyterm=kJ/mole&tag=r21&monomerid=530471&enzyme=Dihydroorotate+dehydrogenase&column=ki&startPg=0&Increment=50&submit=Search

> <PubChem CID>
?

> <PubChem SID>
?

$$$$

  Mrv2115 07222212352D          

 31 35  0  0  0  0            999 V2000
    3.3523   -0.2854    0.0000 O   0  0  0  0  0  0  0  0  0  0  0  0
    3.3523   -1.1104    0.0000 C   0  0  0  0  0  0  0  0  0  0  0  0
    4.0668   -1.5229    0.0000 C   0  0  0  0  0  0  0  0  0  0  0  0
    4.7812   -1.1104    0.0000 C   0  0  0  0  0  0  0  0  0  0  0  0
    5.4957   -1.5229    0.0000 C   0  0  0  0  0  0  0  0  0  0  0  0
    5.4957   -2.3479    0.0000 C   0  0  0  0  0  0  0  0  0  0  0  0
    6.2102   -2.7604    0.0000 O   0  0  0  0  0  0  0  0  0  0  0  0
    4.7812   -2.7604    0.0000 C   0  0  0  0  0  0  0  0  0  0  0  0
    4.0668   -2.3479    0.0000 C   0  0  0  0  0  0  0  0  0  0  0  0
    3.3523   -2.7604    0.0000 C   0  0  0  0  0  0  0  0  0  0  0  0
    3.3523   -3.5854    0.0000 O   0  0  0  0  0  0  0  0  0  0  0  0
    2.6378   -2.3479    0.0000 C   0  0  0  0  0  0  0  0  0  0  0  0
    2.6378   -1.5229    0.0000 C   0  0  0  0  0  0  0  0  0  0  0  0
    1.8532   -1.2680    0.0000 N   0  0  0  0  0  0  0  0  0  0  0  0
    1.3683   -1.9354    0.0000 N   0  0  0  0  0  0  0  0  0  0  0  0
    1.8532   -2.6029    0.0000 N   0  0  0  0  0  0  0  0  0  0  0  0
    1.5983   -3.3875    0.0000 C   0  0  0  0  0  0  0  0  0  0  0  0
    2.1503   -4.0006    0.0000 C   0  0  0  0  0  0  0  0  0  0  0  0
    1.8953   -4.7852    0.0000 C   0  0  0  0  0  0  0  0  0  0  0  0
    2.4474   -5.3983    0.0000 F   0  0  0  0  0  0  0  0  0  0  0  0
    1.0884   -4.9567    0.0000 C   0  0  0  0  0  0  0  0  0  0  0  0
    0.8334   -5.7414    0.0000 C   0  0  0  0  0  0  0  0  0  0  0  0
    1.3855   -6.3545    0.0000 C   0  0  0  0  0  0  0  0  0  0  0  0
    1.1305   -7.1391    0.0000 C   0  0  0  0  0  0  0  0  0  0  0  0
    0.3236   -7.3106    0.0000 C   0  0  0  0  0  0  0  0  0  0  0  0
   -0.2285   -6.6975    0.0000 C   0  0  0  0  0  0  0  0  0  0  0  0
    0.0265   -5.9129    0.0000 C   0  0  0  0  0  0  0  0  0  0  0  0
   -0.5256   -5.2998    0.0000 F   0  0  0  0  0  0  0  0  0  0  0  0
    0.5363   -4.3437    0.0000 C   0  0  0  0  0  0  0  0  0  0  0  0
   -0.2706   -4.5152    0.0000 F   0  0  0  0  0  0  0  0  0  0  0  0
    0.7913   -3.5590    0.0000 C   0  0  0  0  0  0  0  0  0  0  0  0
  1  2  2  0  0  0  0
  2  3  1  0  0  0  0
  3  4  4  0  0  0  0
  4  5  4  0  0  0  0
  5  6  4  0  0  0  0
  6  7  1  0  0  0  0
  6  8  4  0  0  0  0
  8  9  4  0  0  0  0
  3  9  4  0  0  0  0
  9 10  1  0  0  0  0
 10 11  2  0  0  0  0
 10 12  1  0  0  0  0
 12 13  4  0  0  0  0
  2 13  1  0  0  0  0
 13 14  4  0  0  0  0
 14 15  4  0  0  0  0
 15 16  4  0  0  0  0
 12 16  4  0  0  0  0
 16 17  1  0  0  0  0
 17 18  4  0  0  0  0
 18 19  4  0  0  0  0
 19 20  1  0  0  0  0
 19 21  4  0  0  0  0
 21 22  1  0  0  0  0
 22 23  4  0  0  0  0
 23 24  4  0  0  0  0
 24 25  4  0  0  0  0
 25 26  4  0  0  0  0
 26 27  4  0  0  0  0
 22 27  4  0  0  0  0
 27 28  1  0  0  0  0
 21 29  4  0  0  0  0
 29 30  1  0  0  0  0
 29 31  4  0  0  0  0
 17 31  4  0  0  0  0
M  END
> <IC50(uM)>
1.0

> <Outcome>
1.0

> <BindingDB ID>
51338210

> <BindingDB MonomerID>
50541684

> <BindingDB Ligand Name>
CHEMBL4645954

> <Curation/DataSource>
ChEMBL

> <Article DOI>
10.1021/acs.jmedchem.0c00512

> <PMID>
32496056

> <Patent Number>
?

> <Authors>
Zuo, Z; Liu, X; Qian, X; Zeng, T; Sang, N; Liu, H; Zhou, Y; Tao, L; Zhou, X; Su, N; Yu, Y; Chen, Q; Luo, Y; Zhao, Y

> <Link to Ligand in BindingDB>
http://www.bindingdb.org/bind/chemsearch/marvin/MolStructure.jsp?monomerid=50541684

> <Link to Ligand-Target Pair in BindingDB>
http://www.bindingdb.org/jsp/dbsearch/PrimarySearch_ki.jsp?energyterm=kJ/mole&tag=r21&monomerid=50541684&enzyme=Dihydroorotate+dehydrogenase&column=ki&startPg=0&Increment=50&submit=Search

> <PubChem CID>
156019149

> <PubChem SID>
442143247

$$$$

  Mrv2115 07222212352D          

 29 31  0  0  0  0            999 V2000
    2.1434   -2.8875    0.0000 C   0  0  0  0  0  0  0  0  0  0  0  0
    2.1434   -3.7125    0.0000 C   0  0  0  0  0  0  0  0  0  0  0  0
    1.4289   -4.1250    0.0000 C   0  0  0  0  0  0  0  0  0  0  0  0
    1.4289   -4.9500    0.0000 N   0  0  0  0  0  0  0  0  0  0  0  0
    2.1434   -5.3625    0.0000 C   0  0  0  0  0  0  0  0  0  0  0  0
    2.1434   -6.1875    0.0000 N   0  0  0  0  0  0  0  0  0  0  0  0
    1.4289   -6.6000    0.0000 C   0  0  0  0  0  0  0  0  0  0  0  0
    1.4289   -7.4250    0.0000 C   0  0  0  0  0  0  0  0  0  0  0  0
    0.7145   -7.8375    0.0000 C   0  0  0  0  0  0  0  0  0  0  0  0
    0.0000   -7.4250    0.0000 C   0  0  0  0  0  0  0  0  0  0  0  0
   -0.7145   -7.8375    0.0000 C   0  0  0  0  0  0  0  0  0  0  0  0
   -0.7145   -8.6625    0.0000 C   0  0  0  0  0  0  0  0  0  0  0  0
   -1.4289   -9.0750    0.0000 C   0  0  0  0  0  0  0  0  0  0  0  0
   -2.1434   -8.6625    0.0000 C   0  0  0  0  0  0  0  0  0  0  0  0
   -2.1434   -7.8375    0.0000 C   0  0  0  0  0  0  0  0  0  0  0  0
   -2.8579   -7.4250    0.0000 O   0  0  0  0  0  0  0  0  0  0  0  0
   -3.5724   -7.8375    0.0000 C   0  0  0  0  0  0  0  0  0  0  0  0
   -4.2868   -8.2500    0.0000 F   0  0  0  0  0  0  0  0  0  0  0  0
   -3.9849   -7.1230    0.0000 F   0  0  0  0  0  0  0  0  0  0  0  0
   -3.1599   -8.5520    0.0000 F   0  0  0  0  0  0  0  0  0  0  0  0
   -1.4289   -7.4250    0.0000 C   0  0  0  0  0  0  0  0  0  0  0  0
    0.0000   -6.6000    0.0000 C   0  0  0  0  0  0  0  0  0  0  0  0
    0.7145   -6.1875    0.0000 C   0  0  0  0  0  0  0  0  0  0  0  0
    0.7145   -5.3625    0.0000 F   0  0  0  0  0  0  0  0  0  0  0  0
    2.8579   -4.9500    0.0000 C   0  0  0  0  0  0  0  0  0  0  0  0
    3.5724   -5.3625    0.0000 C   0  0  0  0  0  0  0  0  0  0  0  0
    3.5724   -6.1875    0.0000 O   0  0  0  0  0  0  0  0  0  0  0  0
    4.2868   -4.9500    0.0000 O   0  0  0  0  0  0  0  0  0  0  0  0
    2.8579   -4.1250    0.0000 C   0  0  0  0  0  0  0  0  0  0  0  0
  1  2  1  0  0  0  0
  2  3  4  0  0  0  0
  3  4  4  0  0  0  0
  4  5  4  0  0  0  0
  5  6  1  0  0  0  0
  6  7  1  0  0  0  0
  7  8  4  0  0  0  0
  8  9  4  0  0  0  0
  9 10  4  0  0  0  0
 10 11  1  0  0  0  0
 11 12  4  0  0  0  0
 12 13  4  0  0  0  0
 13 14  4  0  0  0  0
 14 15  4  0  0  0  0
 15 16  1  0  0  0  0
 16 17  1  0  0  0  0
 17 18  1  0  0  0  0
 17 19  1  0  0  0  0
 17 20  1  0  0  0  0
 15 21  4  0  0  0  0
 11 21  4  0  0  0  0
 10 22  4  0  0  0  0
 22 23  4  0  0  0  0
  7 23  4  0  0  0  0
 23 24  1  0  0  0  0
  5 25  4  0  0  0  0
 25 26  1  0  0  0  0
 26 27  2  0  0  0  0
 26 28  1  0  0  0  0
 25 29  4  0  0  0  0
  2 29  4  0  0  0  0
M  END
> <IC50(uM)>
0.11

> <Outcome>
1.0

> <BindingDB ID>
51186850; 246909

> <BindingDB MonomerID>
119816

> <BindingDB Ligand Name>
US8691852, 33

> <Curation/DataSource>
ChEMBL; US Patent

> <Article DOI>
10.1007/s00044-011-9837-4; ?

> <PMID>
?

> <Patent Number>
?; US8691852

> <Authors>
n/a; Castro Palomino Laria, JC; Erra Sola, M; Lozoya Toribio, ME; Navarro Romero, E

> <Link to Ligand in BindingDB>
http://www.bindingdb.org/bind/chemsearch/marvin/MolStructure.jsp?monomerid=119816

> <Link to Ligand-Target Pair in BindingDB>
http://www.bindingdb.org/jsp/dbsearch/PrimarySearch_ki.jsp?energyterm=kJ/mole&tag=r21&monomerid=119816&enzyme=Dihydroorotate+dehydrogenase&column=ki&startPg=0&Increment=50&submit=Search

> <PubChem CID>
24987915

> <PubChem SID>
220230610

$$$$

  Mrv2115 07222212352D          

 26 29  0  0  0  0            999 V2000
    4.0668    2.3479    0.0000 C   0  0  0  0  0  0  0  0  0  0  0  0
    3.3523    1.9354    0.0000 C   0  0  0  0  0  0  0  0  0  0  0  0
    3.3523    1.1104    0.0000 C   0  0  0  0  0  0  0  0  0  0  0  0
    2.6378    0.6979    0.0000 C   0  0  0  0  0  0  0  0  0  0  0  0
    2.6378   -0.1271    0.0000 N   0  0  0  0  0  0  0  0  0  0  0  0
    3.3523   -0.5396    0.0000 C   0  0  0  0  0  0  0  0  0  0  0  0
    4.0668   -0.1271    0.0000 C   0  0  0  0  0  0  0  0  0  0  0  0
    4.7812   -0.5396    0.0000 C   0  0  0  0  0  0  0  0  0  0  0  0
    4.7812   -1.3646    0.0000 C   0  0  0  0  0  0  0  0  0  0  0  0
    5.4957   -1.7771    0.0000 S   0  0  0  0  0  0  0  0  0  0  0  0
    6.2102   -2.1896    0.0000 F   0  0  0  0  0  0  0  0  0  0  0  0
    4.7812   -2.1896    0.0000 F   0  0  0  0  0  0  0  0  0  0  0  0
    5.4957   -2.6021    0.0000 F   0  0  0  0  0  0  0  0  0  0  0  0
    6.2102   -1.3646    0.0000 F   0  0  0  0  0  0  0  0  0  0  0  0
    5.4957   -0.9521    0.0000 F   0  0  0  0  0  0  0  0  0  0  0  0
    4.0668   -1.7771    0.0000 C   0  0  0  0  0  0  0  0  0  0  0  0
    3.3523   -1.3646    0.0000 C   0  0  0  0  0  0  0  0  0  0  0  0
    1.9233    1.1104    0.0000 N   0  0  0  0  0  0  0  0  0  0  0  0
    1.1387    0.8555    0.0000 N   0  0  0  0  0  0  0  0  0  0  0  0
    0.6538    1.5229    0.0000 C   0  0  0  0  0  0  0  0  0  0  0  0
   -0.1712    1.5229    0.0000 C   0  0  0  0  0  0  0  0  0  0  0  0
   -0.8857    1.1104    0.0000 C   0  0  0  0  0  0  0  0  0  0  0  0
   -0.8857    1.9354    0.0000 C   0  0  0  0  0  0  0  0  0  0  0  0
    1.1387    2.1904    0.0000 N   0  0  0  0  0  0  0  0  0  0  0  0
    1.9233    1.9354    0.0000 C   0  0  0  0  0  0  0  0  0  0  0  0
    2.6378    2.3479    0.0000 N   0  0  0  0  0  0  0  0  0  0  0  0
  1  2  1  0  0  0  0
  2  3  4  0  0  0  0
  3  4  4  0  0  0  0
  4  5  1  0  0  0  0
  5  6  1  0  0  0  0
  6  7  4  0  0  0  0
  7  8  4  0  0  0  0
  8  9  4  0  0  0  0
  9 10  1  0  0  0  0
 10 11  1  0  0  0  0
 10 12  1  0  0  0  0
 10 13  1  0  0  0  0
 10 14  1  0  0  0  0
 10 15  1  0  0  0  0
  9 16  4  0  0  0  0
 16 17  4  0  0  0  0
  6 17  4  0  0  0  0
  4 18  4  0  0  0  0
 18 19  4  0  0  0  0
 19 20  4  0  0  0  0
 20 21  1  0  0  0  0
 21 22  1  0  0  0  0
 22 23  1  0  0  0  0
 21 23  1  0  0  0  0
 20 24  4  0  0  0  0
 24 25  4  0  0  0  0
 18 25  4  0  0  0  0
 25 26  4  0  0  0  0
  2 26  4  0  0  0  0
M  END
> <IC50(uM)>
100.0

> <Outcome>
0.0

> <BindingDB ID>
50720163

> <BindingDB MonomerID>
50365233

> <BindingDB Ligand Name>
CHEMBL1956279::US9238653, Table 5, Compound 53

> <Curation/DataSource>
ChEMBL

> <Article DOI>
10.1021/jm200592f

> <PMID>
21696174

> <Patent Number>
?

> <Authors>
Coteron, JM; Marco, M; Esquivias, J; Deng, X; White, KL; White, J; Koltun, M; El Mazouni, F; Kokkonda, S; Katneni, K; Bhamidipati, R; Shackleford, DM; Angulo-Barturen, I; Ferrer, SB; Jimenez-Diaz, MB; Gamo, FJ; Goldsmith, EJ; Charman, WN; Bathurst, I; Floyd, D; Matthews, D; Burrows, JN; Rathod, PK; Charman, SA; Phillips, MA

> <Link to Ligand in BindingDB>
http://www.bindingdb.org/bind/chemsearch/marvin/MolStructure.jsp?monomerid=50365233

> <Link to Ligand-Target Pair in BindingDB>
http://www.bindingdb.org/jsp/dbsearch/PrimarySearch_ki.jsp?energyterm=kJ/mole&tag=r21&monomerid=50365233&enzyme=Dihydroorotate+dehydrogenase&column=ki&startPg=0&Increment=50&submit=Search

> <PubChem CID>
51347546

> <PubChem SID>
136969295

$$$$

  Mrv2115 07222212352D          

 27 30  0  0  0  0            999 V2000
    2.5645    4.9500    0.0000 C   0  0  0  0  0  0  0  0  0  0  0  0
    3.2789    4.5375    0.0000 C   0  0  0  0  0  0  0  0  0  0  0  0
    3.9934    4.9500    0.0000 C   0  0  0  0  0  0  0  0  0  0  0  0
    4.7079    4.5375    0.0000 C   0  0  0  0  0  0  0  0  0  0  0  0
    4.7079    3.7125    0.0000 N   0  0  0  0  0  0  0  0  0  0  0  0
    3.9934    3.3000    0.0000 C   0  0  0  0  0  0  0  0  0  0  0  0
    3.9934    2.4750    0.0000 C   0  0  0  0  0  0  0  0  0  0  0  0
    4.7079    2.0625    0.0000 O   0  0  0  0  0  0  0  0  0  0  0  0
    3.2789    2.0625    0.0000 N   0  0  0  0  0  0  0  0  0  0  0  0
    3.2789    1.2375    0.0000 C   0  0  0  0  0  0  0  0  0  0  0  0
    3.9934    0.8250    0.0000 C   0  0  0  0  0  0  0  0  0  0  0  0
    3.9934    0.0000    0.0000 C   0  0  0  0  0  0  0  0  0  0  0  0
    3.2789   -0.4125    0.0000 C   0  0  0  0  0  0  0  0  0  0  0  0
    2.5645    0.0000    0.0000 C   0  0  0  0  0  0  0  0  0  0  0  0
    2.5645    0.8250    0.0000 C   0  0  0  0  0  0  0  0  0  0  0  0
    1.7798    1.0799    0.0000 C   0  0  0  0  0  0  0  0  0  0  0  0
    1.2949    0.4125    0.0000 N   0  0  0  0  0  0  0  0  0  0  0  0
    1.7798   -0.2549    0.0000 N   0  0  0  0  0  0  0  0  0  0  0  0
    1.5249   -1.0396    0.0000 C   0  0  0  0  0  0  0  0  0  0  0  0
    2.0769   -1.6527    0.0000 C   0  0  0  0  0  0  0  0  0  0  0  0
    1.8220   -2.4373    0.0000 C   0  0  0  0  0  0  0  0  0  0  0  0
    2.3740   -3.0504    0.0000 C   0  0  0  0  0  0  0  0  0  0  0  0
    1.0150   -2.6088    0.0000 C   0  0  0  0  0  0  0  0  0  0  0  0
    0.4630   -1.9957    0.0000 C   0  0  0  0  0  0  0  0  0  0  0  0
    0.7179   -1.2111    0.0000 C   0  0  0  0  0  0  0  0  0  0  0  0
    0.1659   -0.5980    0.0000 F   0  0  0  0  0  0  0  0  0  0  0  0
    3.2789    3.7125    0.0000 C   0  0  0  0  0  0  0  0  0  0  0  0
  1  2  1  0  0  0  0
  2  3  4  0  0  0  0
  3  4  4  0  0  0  0
  4  5  4  0  0  0  0
  5  6  4  0  0  0  0
  6  7  1  0  0  0  0
  7  8  2  0  0  0  0
  7  9  1  0  0  0  0
  9 10  1  0  0  0  0
 10 11  1  0  0  0  0
 11 12  1  0  0  0  0
 12 13  1  0  0  0  0
 13 14  1  0  0  0  0
 14 15  4  0  0  0  0
 10 15  1  0  0  0  0
 15 16  4  0  0  0  0
 16 17  4  0  0  0  0
 17 18  4  0  0  0  0
 14 18  4  0  0  0  0
 18 19  1  0  0  0  0
 19 20  4  0  0  0  0
 20 21  4  0  0  0  0
 21 22  1  0  0  0  0
 21 23  4  0  0  0  0
 23 24  4  0  0  0  0
 24 25  4  0  0  0  0
 19 25  4  0  0  0  0
 25 26  1  0  0  0  0
  6 27  4  0  0  0  0
  2 27  4  0  0  0  0
M  END
> <IC50(uM)>
0.0275

> <Outcome>
1.0

> <BindingDB ID>
51334953; 993119

> <BindingDB MonomerID>
477621

> <BindingDB Ligand Name>
N-[(4R)-1-(2-fluoro-5-methylphenyl)-4,5,6,7-tetrahydro-1H-indazol-4-yl]-4-methylpyridine-2-carboxamide::US10889564, Example 51

> <Curation/DataSource>
ChEMBL; US Patent

> <Article DOI>
10.1021/acs.jmedchem.9b01658; ?

> <PMID>
32212728; ?

> <Patent Number>
?; US10889564

> <Authors>
Popova, G; Ladds, MJGW; Johansson, L; Saleh, A; Larsson, J; Sandberg, L; Sahlberg, SH; Qian, W; Gullberg, H; Garg, N; Gustavsson, AL; Haraldsson, M; Lane, D; Yngve, U; Lain, S; Lain, S; Drummond, C; Leeuwen, IV; Haraldsson, M; Johansson, L; Sandberg, L; Yngve, U

> <Link to Ligand in BindingDB>
http://www.bindingdb.org/bind/chemsearch/marvin/MolStructure.jsp?monomerid=477621

> <Link to Ligand-Target Pair in BindingDB>
http://www.bindingdb.org/jsp/dbsearch/PrimarySearch_ki.jsp?energyterm=kJ/mole&tag=r21&monomerid=477621&enzyme=Dihydroorotate+dehydrogenase&column=ki&startPg=0&Increment=50&submit=Search

> <PubChem CID>
129104782

> <PubChem SID>
442137238

$$$$

  Mrv2115 07222212352D          

 19 21  0  0  0  0            999 V2000
    4.0668    2.3479    0.0000 C   0  0  0  0  0  0  0  0  0  0  0  0
    3.3523    1.9354    0.0000 C   0  0  0  0  0  0  0  0  0  0  0  0
    3.3523    1.1104    0.0000 C   0  0  0  0  0  0  0  0  0  0  0  0
    2.6378    0.6979    0.0000 C   0  0  0  0  0  0  0  0  0  0  0  0
    2.6378   -0.1271    0.0000 N   0  0  0  0  0  0  0  0  0  0  0  0
    3.3523   -0.5396    0.0000 C   0  0  0  0  0  0  0  0  0  0  0  0
    4.0668   -0.1271    0.0000 O   0  0  0  0  0  0  0  0  0  0  0  0
    3.3523   -1.3646    0.0000 C   0  0  0  0  0  0  0  0  0  0  0  0
    4.0668   -1.7771    0.0000 C   0  0  0  0  0  0  0  0  0  0  0  0
    4.0668   -2.6021    0.0000 C   0  0  0  0  0  0  0  0  0  0  0  0
    3.3523   -3.0146    0.0000 C   0  0  0  0  0  0  0  0  0  0  0  0
    2.6378   -2.6021    0.0000 C   0  0  0  0  0  0  0  0  0  0  0  0
    2.6378   -1.7771    0.0000 C   0  0  0  0  0  0  0  0  0  0  0  0
    1.9233    1.1104    0.0000 N   0  0  0  0  0  0  0  0  0  0  0  0
    1.1387    0.8555    0.0000 N   0  0  0  0  0  0  0  0  0  0  0  0
    0.6538    1.5229    0.0000 C   0  0  0  0  0  0  0  0  0  0  0  0
    1.1387    2.1904    0.0000 N   0  0  0  0  0  0  0  0  0  0  0  0
    1.9233    1.9354    0.0000 C   0  0  0  0  0  0  0  0  0  0  0  0
    2.6378    2.3479    0.0000 N   0  0  0  0  0  0  0  0  0  0  0  0
  1  2  1  0  0  0  0
  2  3  4  0  0  0  0
  3  4  4  0  0  0  0
  4  5  1  0  0  0  0
  5  6  1  0  0  0  0
  6  7  2  0  0  0  0
  6  8  1  0  0  0  0
  8  9  4  0  0  0  0
  9 10  4  0  0  0  0
 10 11  4  0  0  0  0
 11 12  4  0  0  0  0
 12 13  4  0  0  0  0
  8 13  4  0  0  0  0
  4 14  4  0  0  0  0
 14 15  4  0  0  0  0
 15 16  4  0  0  0  0
 16 17  4  0  0  0  0
 17 18  4  0  0  0  0
 14 18  4  0  0  0  0
 18 19  4  0  0  0  0
  2 19  4  0  0  0  0
M  END
> <IC50(uM)>
100.0

> <Outcome>
0.0

> <BindingDB ID>
50967541

> <BindingDB MonomerID>
50396728

> <BindingDB Ligand Name>
CHEMBL2172238

> <Curation/DataSource>
ChEMBL

> <Article DOI>
10.1021/jm300351w

> <PMID>
22877245

> <Patent Number>
?

> <Authors>
Marwaha, A; White, J; El Mazouni, F; Creason, SA; Kokkonda, S; Buckner, FS; Charman, SA; Phillips, MA; Rathod, PK

> <Link to Ligand in BindingDB>
http://www.bindingdb.org/bind/chemsearch/marvin/MolStructure.jsp?monomerid=50396728

> <Link to Ligand-Target Pair in BindingDB>
http://www.bindingdb.org/jsp/dbsearch/PrimarySearch_ki.jsp?energyterm=kJ/mole&tag=r21&monomerid=50396728&enzyme=Dihydroorotate+dehydrogenase&column=ki&startPg=0&Increment=50&submit=Search

> <PubChem CID>
71457078

> <PubChem SID>
163345752

$$$$

  Mrv2115 07222212352D          

 36 40  0  0  0  0            999 V2000
   -0.1712   -0.6979    0.0000 C   0  0  0  0  0  0  0  0  0  0  0  0
    0.6538   -0.6979    0.0000 N   0  0  0  0  0  0  0  0  0  0  0  0
    1.1387   -0.0305    0.0000 N   0  0  0  0  0  0  0  0  0  0  0  0
    1.9233   -0.2854    0.0000 C   0  0  0  0  0  0  0  0  0  0  0  0
    2.6378    0.1271    0.0000 C   0  0  0  0  0  0  0  0  0  0  0  0
    3.3523   -0.2854    0.0000 C   0  0  0  0  0  0  0  0  0  0  0  0
    4.0668    0.1271    0.0000 C   0  0  0  0  0  0  0  0  0  0  0  0
    4.0668    0.9521    0.0000 C   0  0  0  0  0  0  0  0  0  0  0  0
    3.3523    1.3646    0.0000 F   0  0  0  0  0  0  0  0  0  0  0  0
    4.7812    1.3646    0.0000 C   0  0  0  0  0  0  0  0  0  0  0  0
    4.7812    2.1896    0.0000 F   0  0  0  0  0  0  0  0  0  0  0  0
    5.4957    0.9521    0.0000 C   0  0  0  0  0  0  0  0  0  0  0  0
    6.2102    1.3646    0.0000 C   0  0  0  0  0  0  0  0  0  0  0  0
    6.2102    2.1896    0.0000 C   0  0  0  0  0  0  0  0  0  0  0  0
    6.9246    2.6021    0.0000 C   0  0  0  0  0  0  0  0  0  0  0  0
    7.6391    2.1896    0.0000 C   0  0  0  0  0  0  0  0  0  0  0  0
    7.6391    1.3646    0.0000 C   0  0  0  0  0  0  0  0  0  0  0  0
    8.3536    0.9521    0.0000 C   0  0  0  0  0  0  0  0  0  0  0  0
    8.3536    0.1271    0.0000 N   0  0  0  0  0  0  0  0  0  0  0  0
    9.0681   -0.2854    0.0000 C   0  0  0  0  0  0  0  0  0  0  0  0
    9.0681   -1.1104    0.0000 C   0  0  0  0  0  0  0  0  0  0  0  0
    8.3536   -1.5229    0.0000 C   0  0  0  0  0  0  0  0  0  0  0  0
    7.6391   -1.1104    0.0000 C   0  0  0  0  0  0  0  0  0  0  0  0
    7.6391   -0.2854    0.0000 C   0  0  0  0  0  0  0  0  0  0  0  0
    6.9246    0.9521    0.0000 C   0  0  0  0  0  0  0  0  0  0  0  0
    5.4957    0.1271    0.0000 C   0  0  0  0  0  0  0  0  0  0  0  0
    6.2102   -0.2854    0.0000 F   0  0  0  0  0  0  0  0  0  0  0  0
    4.7812   -0.2854    0.0000 C   0  0  0  0  0  0  0  0  0  0  0  0
    4.7812   -1.1104    0.0000 F   0  0  0  0  0  0  0  0  0  0  0  0
    3.3523   -1.1104    0.0000 C   0  0  0  0  0  0  0  0  0  0  0  0
    2.6378   -1.5229    0.0000 C   0  0  0  0  0  0  0  0  0  0  0  0
    2.6378   -2.3479    0.0000 C   0  0  0  0  0  0  0  0  0  0  0  0
    1.9233   -2.7604    0.0000 O   0  0  0  0  0  0  0  0  0  0  0  0
    3.3523   -2.7604    0.0000 O   0  0  0  0  0  0  0  0  0  0  0  0
    1.9233   -1.1104    0.0000 C   0  0  0  0  0  0  0  0  0  0  0  0
    1.1387   -1.3654    0.0000 N   0  0  0  0  0  0  0  0  0  0  0  0
  1  2  1  0  0  0  0
  2  3  4  0  0  0  0
  3  4  4  0  0  0  0
  4  5  4  0  0  0  0
  5  6  4  0  0  0  0
  6  7  1  0  0  0  0
  7  8  4  0  0  0  0
  8  9  1  0  0  0  0
  8 10  4  0  0  0  0
 10 11  1  0  0  0  0
 10 12  4  0  0  0  0
 12 13  1  0  0  0  0
 13 14  4  0  0  0  0
 14 15  4  0  0  0  0
 15 16  4  0  0  0  0
 16 17  4  0  0  0  0
 17 18  1  0  0  0  0
 18 19  1  0  0  0  0
 19 20  1  0  0  0  0
 20 21  1  0  0  0  0
 21 22  1  0  0  0  0
 22 23  1  0  0  0  0
 23 24  1  0  0  0  0
 19 24  1  0  0  0  0
 17 25  4  0  0  0  0
 13 25  4  0  0  0  0
 12 26  4  0  0  0  0
 26 27  1  0  0  0  0
 26 28  4  0  0  0  0
  7 28  4  0  0  0  0
 28 29  1  0  0  0  0
  6 30  4  0  0  0  0
 30 31  4  0  0  0  0
 31 32  1  0  0  0  0
 32 33  2  0  0  0  0
 32 34  1  0  0  0  0
 31 35  4  0  0  0  0
  4 35  4  0  0  0  0
 35 36  4  0  0  0  0
  2 36  4  0  0  0  0
M  END
> <IC50(uM)>
0.55

> <Outcome>
1.0

> <BindingDB ID>
1100173

> <BindingDB MonomerID>
520632

> <BindingDB Ligand Name>
2-methyl-6-(2,3,5,6-tetrafluoro-3'-(piperidin-1-ylmethyl)-[1,1'-biphenyl]-4-yl)- 2H-benzo[d][1,2,3]triazole-4-carboxylic acid;::US11147801, Compound 38

> <Curation/DataSource>
US Patent

> <Article DOI>
?

> <PMID>
?

> <Patent Number>
US11147801

> <Authors>
Nellore, K; Hosahalli, S

> <Link to Ligand in BindingDB>
http://www.bindingdb.org/bind/chemsearch/marvin/MolStructure.jsp?monomerid=520632

> <Link to Ligand-Target Pair in BindingDB>
http://www.bindingdb.org/jsp/dbsearch/PrimarySearch_ki.jsp?energyterm=kJ/mole&tag=r21&monomerid=520632&enzyme=Dihydroorotate+dehydrogenase&column=ki&startPg=0&Increment=50&submit=Search

> <PubChem CID>
?

> <PubChem SID>
?

$$$$

  Mrv2115 07222212352D          

 22 23  0  0  0  0            999 V2000
    3.4656    1.1759    0.0000 C   0  0  0  0  0  0  0  0  0  0  0  0
    2.7512    0.7634    0.0000 C   0  0  0  0  0  0  0  0  0  0  0  0
    2.7512   -0.0616    0.0000 C   0  0  0  0  0  0  0  0  0  0  0  0
    2.0367   -0.4741    0.0000 C   0  0  0  0  0  0  0  0  0  0  0  0
    1.3222   -0.0616    0.0000 O   0  0  0  0  0  0  0  0  0  0  0  0
    2.0367   -1.2991    0.0000 C   0  0  0  0  0  0  0  0  0  0  0  0
    2.7041   -1.7840    0.0000 N   0  0  0  0  0  0  0  0  0  0  0  0
    2.4492   -2.5687    0.0000 C   0  0  0  0  0  0  0  0  0  0  0  0
    1.6242   -2.5687    0.0000 C   0  0  0  0  0  0  0  0  0  0  0  0
    1.1393   -3.2361    0.0000 C   0  0  0  0  0  0  0  0  0  0  0  0
    0.3188   -3.1499    0.0000 C   0  0  0  0  0  0  0  0  0  0  0  0
   -0.1661   -3.8173    0.0000 C   0  0  0  0  0  0  0  0  0  0  0  0
   -0.9866   -3.7311    0.0000 C   0  0  0  0  0  0  0  0  0  0  0  0
   -1.3222   -2.9774    0.0000 C   0  0  0  0  0  0  0  0  0  0  0  0
   -2.1426   -2.8911    0.0000 C   0  0  0  0  0  0  0  0  0  0  0  0
   -2.9631   -2.8049    0.0000 F   0  0  0  0  0  0  0  0  0  0  0  0
   -2.0564   -2.0707    0.0000 F   0  0  0  0  0  0  0  0  0  0  0  0
   -2.2289   -3.7116    0.0000 F   0  0  0  0  0  0  0  0  0  0  0  0
   -0.8372   -2.3099    0.0000 N   0  0  0  0  0  0  0  0  0  0  0  0
   -0.0168   -2.3962    0.0000 C   0  0  0  0  0  0  0  0  0  0  0  0
    1.3693   -1.7840    0.0000 C   0  0  0  0  0  0  0  0  0  0  0  0
    0.5846   -1.5291    0.0000 C   0  0  0  0  0  0  0  0  0  0  0  0
  1  2  1  0  0  0  0
  2  3  1  0  0  0  0
  3  4  1  0  0  0  0
  4  5  2  0  0  0  0
  4  6  1  0  0  0  0
  6  7  4  0  0  0  0
  7  8  4  0  0  0  0
  8  9  4  0  0  0  0
  9 10  1  0  0  0  0
 10 11  1  0  0  0  0
 11 12  4  0  0  0  0
 12 13  4  0  0  0  0
 13 14  4  0  0  0  0
 14 15  1  0  0  0  0
 15 16  1  0  0  0  0
 15 17  1  0  0  0  0
 15 18  1  0  0  0  0
 14 19  4  0  0  0  0
 19 20  4  0  0  0  0
 11 20  4  0  0  0  0
  9 21  4  0  0  0  0
  6 21  4  0  0  0  0
 21 22  1  0  0  0  0
M  STY  1   1 DAT
M  SAL   1  1   7
M  SDT   1 MRV_IMPLICIT_H                                        
M  SDD   1     0.5304   -0.4125    DR    ALL  0       0  
M  SED   1 IMPL_H1
M  END
> <IC50(uM)>
100.0

> <Outcome>
0.0

> <BindingDB ID>
51330101

> <BindingDB MonomerID>
50538349

> <BindingDB Ligand Name>
CHEMBL4635012

> <Curation/DataSource>
ChEMBL

> <Article DOI>
10.1021/acs.jmedchem.0c00311

> <PMID>
32248693

> <Patent Number>
?

> <Authors>
Kokkonda, S; Deng, X; White, KL; El Mazouni, F; White, J; Shackleford, DM; Katneni, K; Chiu, FCK; Barker, H; McLaren, J; Crighton, E; Chen, G; Angulo-Barturen, I; Jimenez-Diaz, MB; Ferrer, S; Huertas-Valentin, L; Martinez-Martinez, MS; Lafuente-Monasterio, MJ; Chittimalla, R; Shahi, SP; Wittlin, S; Waterson, D; Burrows, JN; Matthews, D; Tomchick, D; Rathod, PK; Palmer, MJ; Charman, SA; Phillips, MA

> <Link to Ligand in BindingDB>
http://www.bindingdb.org/bind/chemsearch/marvin/MolStructure.jsp?monomerid=50538349

> <Link to Ligand-Target Pair in BindingDB>
http://www.bindingdb.org/jsp/dbsearch/PrimarySearch_ki.jsp?energyterm=kJ/mole&tag=r21&monomerid=50538349&enzyme=Dihydroorotate+dehydrogenase&column=ki&startPg=0&Increment=50&submit=Search

> <PubChem CID>
156014243

> <PubChem SID>
442139912

$$$$

  Mrv2115 07222212352D          

 24 25  0  0  0  0            999 V2000
   -1.4289   -4.1250    0.0000 O   0  0  0  0  0  0  0  0  0  0  0  0
   -0.7145   -3.7125    0.0000 C   0  0  0  0  0  0  0  0  0  0  0  0
    0.0000   -4.1250    0.0000 O   0  0  0  0  0  0  0  0  0  0  0  0
   -0.7145   -2.8875    0.0000 C   0  0  0  0  0  0  0  0  0  0  0  0
   -1.4289   -2.4750    0.0000 C   0  0  0  0  0  0  0  0  0  0  0  0
   -1.4289   -1.6500    0.0000 C   0  0  0  0  0  0  0  0  0  0  0  0
   -0.7145   -1.2375    0.0000 C   0  0  0  0  0  0  0  0  0  0  0  0
    0.0000   -1.6500    0.0000 C   0  0  0  0  0  0  0  0  0  0  0  0
    0.0000   -2.4750    0.0000 C   0  0  0  0  0  0  0  0  0  0  0  0
    0.7145   -2.8875    0.0000 C   0  0  0  0  0  0  0  0  0  0  0  0
    1.4289   -2.4750    0.0000 C   0  0  0  0  0  0  0  0  0  0  0  0
    2.1434   -2.8875    0.0000 C   0  0  0  0  0  0  0  0  0  0  0  0
    2.8579   -2.4750    0.0000 C   0  0  0  0  0  0  0  0  0  0  0  0
    3.5724   -2.8875    0.0000 C   0  0  0  0  0  0  0  0  0  0  0  0
    4.2868   -2.4750    0.0000 C   0  0  0  0  0  0  0  0  0  0  0  0
    4.2868   -1.6500    0.0000 C   0  0  0  0  0  0  0  0  0  0  0  0
    5.0013   -1.2375    0.0000 O   0  0  0  0  0  0  0  0  0  0  0  0
    3.5724   -1.2375    0.0000 O   0  0  0  0  0  0  0  0  0  0  0  0
    5.0013   -2.8875    0.0000 N   0  0  0  0  0  0  0  0  0  0  0  0
    5.0013   -3.7125    0.0000 C   0  0  0  0  0  0  0  0  0  0  0  0
    5.7158   -4.1250    0.0000 O   0  0  0  0  0  0  0  0  0  0  0  0
    4.2868   -4.1250    0.0000 N   0  0  0  0  0  0  0  0  0  0  0  0
    3.5724   -3.7125    0.0000 C   0  0  0  0  0  0  0  0  0  0  0  0
    2.8579   -4.1250    0.0000 O   0  0  0  0  0  0  0  0  0  0  0  0
  1  2  2  0  0  0  0
  2  3  1  0  0  0  0
  2  4  1  0  0  0  0
  4  5  4  0  0  0  0
  5  6  4  0  0  0  0
  6  7  4  0  0  0  0
  7  8  4  0  0  0  0
  8  9  4  0  0  0  0
  4  9  4  0  0  0  0
  9 10  1  0  0  0  0
 10 11  1  0  0  0  0
 11 12  1  0  0  0  0
 12 13  1  0  0  0  0
 13 14  1  0  0  0  0
 14 15  4  0  0  0  0
 15 16  1  0  0  0  0
 16 17  2  0  0  0  0
 16 18  1  0  0  0  0
 15 19  4  0  0  0  0
 19 20  4  0  0  0  0
 20 21  2  0  0  0  0
 20 22  4  0  0  0  0
 22 23  4  0  0  0  0
 14 23  4  0  0  0  0
 23 24  2  0  0  0  0
M  STY  2   1 DAT   2 DAT
M  SAL   1  1  19
M  SDT   1 MRV_IMPLICIT_H                                        
M  SDD   1     0.5304   -0.4125    DR    ALL  0       0  
M  SED   1 IMPL_H1
M  SAL   2  1  22
M  SDT   2 MRV_IMPLICIT_H                                        
M  SDD   2     0.6482   -0.4125    DR    ALL  0       0  
M  SED   2 IMPL_H1
M  END
> <IC50(uM)>
0.638

> <Outcome>
1.0

> <BindingDB ID>
50555380

> <BindingDB MonomerID>
50211708

> <BindingDB Ligand Name>
CHEMBL3910672

> <Curation/DataSource>
ChEMBL

> <Article DOI>
10.1016/j.bmc.2017.01.009

> <PMID>
28118956

> <Patent Number>
?

> <Authors>
Inaoka, DK; Iida, M; Hashimoto, S; Tabuchi, T; Kuranaga, T; Balogun, EO; Honma, T; Tanaka, A; Harada, S; Nara, T; Kita, K; Inoue, M

> <Link to Ligand in BindingDB>
http://www.bindingdb.org/bind/chemsearch/marvin/MolStructure.jsp?monomerid=50211708

> <Link to Ligand-Target Pair in BindingDB>
http://www.bindingdb.org/jsp/dbsearch/PrimarySearch_ki.jsp?energyterm=kJ/mole&tag=r21&monomerid=50211708&enzyme=Dihydroorotate+dehydrogenase&column=ki&startPg=0&Increment=50&submit=Search

> <PubChem CID>
134132554

> <PubChem SID>
375983051

$$$$

  Mrv2115 07222212352D          

 33 36  0  0  0  0            999 V2000
   -2.6111    0.8587    0.0000 C   0  0  0  0  0  0  0  0  0  0  0  0
   -2.1262    0.1913    0.0000 C   0  0  0  0  0  0  0  0  0  0  0  0
   -1.3057    0.2775    0.0000 N   0  0  0  0  0  0  0  0  0  0  0  0
   -0.8932    0.9920    0.0000 C   0  0  0  0  0  0  0  0  0  0  0  0
   -1.2288    1.7457    0.0000 C   0  0  0  0  0  0  0  0  0  0  0  0
   -0.7438    2.4131    0.0000 O   0  0  0  0  0  0  0  0  0  0  0  0
   -0.0862    0.8205    0.0000 N   0  0  0  0  0  0  0  0  0  0  0  0
    0.0000   -0.0000    0.0000 N   0  0  0  0  0  0  0  0  0  0  0  0
    0.7145   -0.4125    0.0000 C   0  0  0  0  0  0  0  0  0  0  0  0
    1.4289    0.0000    0.0000 C   0  0  0  0  0  0  0  0  0  0  0  0
    2.1434   -0.4125    0.0000 C   0  0  0  0  0  0  0  0  0  0  0  0
    2.8579    0.0000    0.0000 C   0  0  0  0  0  0  0  0  0  0  0  0
    2.8579    0.8250    0.0000 C   0  0  0  0  0  0  0  0  0  0  0  0
    3.5724    1.2375    0.0000 C   0  0  0  0  0  0  0  0  0  0  0  0
    2.1434    1.2375    0.0000 C   0  0  0  0  0  0  0  0  0  0  0  0
    3.5724   -0.4125    0.0000 C   0  0  0  0  0  0  0  0  0  0  0  0
    3.5724   -1.2375    0.0000 N   0  0  0  0  0  0  0  0  0  0  0  0
    4.2868   -1.6500    0.0000 C   0  0  0  0  0  0  0  0  0  0  0  0
    5.0013   -1.2375    0.0000 C   0  0  0  0  0  0  0  0  0  0  0  0
    5.0013   -0.4125    0.0000 F   0  0  0  0  0  0  0  0  0  0  0  0
    5.7158   -1.6500    0.0000 C   0  0  0  0  0  0  0  0  0  0  0  0
    5.7158   -2.4750    0.0000 C   0  0  0  0  0  0  0  0  0  0  0  0
    5.0013   -2.8875    0.0000 C   0  0  0  0  0  0  0  0  0  0  0  0
    4.2868   -2.4750    0.0000 C   0  0  0  0  0  0  0  0  0  0  0  0
    3.5724   -2.8875    0.0000 Cl  0  0  0  0  0  0  0  0  0  0  0  0
    2.8579   -1.6500    0.0000 C   0  0  0  0  0  0  0  0  0  0  0  0
    2.8579   -2.4750    0.0000 O   0  0  0  0  0  0  0  0  0  0  0  0
    2.1434   -1.2375    0.0000 C   0  0  0  0  0  0  0  0  0  0  0  0
    1.4289   -1.6500    0.0000 C   0  0  0  0  0  0  0  0  0  0  0  0
    0.7145   -1.2375    0.0000 C   0  0  0  0  0  0  0  0  0  0  0  0
    0.0000   -1.6500    0.0000 F   0  0  0  0  0  0  0  0  0  0  0  0
   -0.7537   -0.3356    0.0000 C   0  0  0  0  0  0  0  0  0  0  0  0
   -0.9252   -1.1425    0.0000 O   0  0  0  0  0  0  0  0  0  0  0  0
  1  2  1  0  0  0  0
  2  3  1  0  0  0  0
  3  4  4  0  0  0  0
  4  5  1  0  0  0  0
  5  6  1  0  0  0  0
  4  7  4  0  0  0  0
  7  8  4  0  0  0  0
  8  9  1  0  0  0  0
  9 10  4  0  0  0  0
 10 11  4  0  0  0  0
 11 12  4  0  0  0  0
 12 13  1  0  0  0  0
 13 14  1  0  0  0  0
 13 15  1  0  0  0  0
 12 16  4  0  0  0  0
 16 17  4  0  0  0  0
 17 18  1  0  0  0  0
 18 19  4  0  0  0  0
 19 20  1  0  0  0  0
 19 21  4  0  0  0  0
 21 22  4  0  0  0  0
 22 23  4  0  0  0  0
 23 24  4  0  0  0  0
 18 24  4  0  0  0  0
 24 25  1  0  0  0  0
 17 26  4  0  0  0  0
 26 27  2  0  0  0  0
 26 28  4  0  0  0  0
 11 28  4  0  0  0  0
 28 29  4  0  0  0  0
 29 30  4  0  0  0  0
  9 30  4  0  0  0  0
 30 31  1  0  0  0  0
  8 32  4  0  0  0  0
  3 32  4  0  0  0  0
 32 33  2  0  0  0  0
M  END
> <IC50(uM)>
2.2199999999999998E-4

> <Outcome>
1.0

> <BindingDB ID>
51360204

> <BindingDB MonomerID>
50549954

> <BindingDB Ligand Name>
CHEMBL4791380

> <Curation/DataSource>
ChEMBL

> <Article DOI>
?

> <PMID>
33603957

> <Patent Number>
?

> <Authors>
Sabnis, RW

> <Link to Ligand in BindingDB>
http://www.bindingdb.org/bind/chemsearch/marvin/MolStructure.jsp?monomerid=50549954

> <Link to Ligand-Target Pair in BindingDB>
http://www.bindingdb.org/jsp/dbsearch/PrimarySearch_ki.jsp?energyterm=kJ/mole&tag=r21&monomerid=50549954&enzyme=Dihydroorotate+dehydrogenase&column=ki&startPg=0&Increment=50&submit=Search

> <PubChem CID>
155209498

> <PubChem SID>
461680294

$$$$

  Mrv2115 07222212352D          

 21 23  0  0  0  0            999 V2000
    4.0668    2.3479    0.0000 C   0  0  0  0  0  0  0  0  0  0  0  0
    3.3523    1.9354    0.0000 C   0  0  0  0  0  0  0  0  0  0  0  0
    3.3523    1.1104    0.0000 C   0  0  0  0  0  0  0  0  0  0  0  0
    2.6378    0.6979    0.0000 C   0  0  0  0  0  0  0  0  0  0  0  0
    2.6378   -0.1271    0.0000 O   0  0  0  0  0  0  0  0  0  0  0  0
    1.9233    1.1104    0.0000 N   0  0  0  0  0  0  0  0  0  0  0  0
    1.1387    0.8555    0.0000 N   0  0  0  0  0  0  0  0  0  0  0  0
    0.6538    1.5229    0.0000 C   0  0  0  0  0  0  0  0  0  0  0  0
   -0.1712    1.5229    0.0000 S   0  0  0  0  0  0  0  0  0  0  0  0
   -0.5837    0.8085    0.0000 C   0  0  0  0  0  0  0  0  0  0  0  0
   -1.4087    0.8085    0.0000 C   0  0  0  0  0  0  0  0  0  0  0  0
   -1.8212    0.0940    0.0000 C   0  0  0  0  0  0  0  0  0  0  0  0
   -2.6462    0.0940    0.0000 C   0  0  0  0  0  0  0  0  0  0  0  0
   -3.0587   -0.6205    0.0000 Cl  0  0  0  0  0  0  0  0  0  0  0  0
   -3.0587    0.8085    0.0000 C   0  0  0  0  0  0  0  0  0  0  0  0
   -2.6462    1.5229    0.0000 C   0  0  0  0  0  0  0  0  0  0  0  0
   -1.8212    1.5229    0.0000 C   0  0  0  0  0  0  0  0  0  0  0  0
   -1.4087    2.2374    0.0000 Cl  0  0  0  0  0  0  0  0  0  0  0  0
    1.1387    2.1904    0.0000 N   0  0  0  0  0  0  0  0  0  0  0  0
    1.9233    1.9354    0.0000 C   0  0  0  0  0  0  0  0  0  0  0  0
    2.6378    2.3479    0.0000 N   0  0  0  0  0  0  0  0  0  0  0  0
  1  2  1  0  0  0  0
  2  3  4  0  0  0  0
  3  4  4  0  0  0  0
  4  5  2  0  0  0  0
  4  6  4  0  0  0  0
  6  7  4  0  0  0  0
  7  8  4  0  0  0  0
  8  9  1  0  0  0  0
  9 10  1  0  0  0  0
 10 11  1  0  0  0  0
 11 12  4  0  0  0  0
 12 13  4  0  0  0  0
 13 14  1  0  0  0  0
 13 15  4  0  0  0  0
 15 16  4  0  0  0  0
 16 17  4  0  0  0  0
 11 17  4  0  0  0  0
 17 18  1  0  0  0  0
  8 19  4  0  0  0  0
 19 20  4  0  0  0  0
  6 20  4  0  0  0  0
 20 21  4  0  0  0  0
  2 21  4  0  0  0  0
M  STY  1   1 DAT
M  SAL   1  1   7
M  SDT   1 MRV_IMPLICIT_H                                        
M  SDD   1     0.5304   -0.4125    DR    ALL  0       0  
M  SED   1 IMPL_H1
M  END
> <IC50(uM)>
0.051

> <Outcome>
1.0

> <BindingDB ID>
50970246

> <BindingDB MonomerID>
50397819

> <BindingDB Ligand Name>
CHEMBL2177858

> <Curation/DataSource>
ChEMBL

> <Article DOI>
10.1021/jm300157n

> <PMID>
22621375

> <Patent Number>
?

> <Authors>
Bedingfield, PT; Cowen, D; Acklam, P; Cunningham, F; Parsons, MR; McConkey, GA; Fishwick, CW; Johnson, AP

> <Link to Ligand in BindingDB>
http://www.bindingdb.org/bind/chemsearch/marvin/MolStructure.jsp?monomerid=50397819

> <Link to Ligand-Target Pair in BindingDB>
http://www.bindingdb.org/jsp/dbsearch/PrimarySearch_ki.jsp?energyterm=kJ/mole&tag=r21&monomerid=50397819&enzyme=Dihydroorotate+dehydrogenase&column=ki&startPg=0&Increment=50&submit=Search

> <PubChem CID>
60166485

> <PubChem SID>
163346843

$$$$

  Mrv2115 07222212352D          

 29 32  0  0  0  0            999 V2000
    1.4358   -2.7631    0.0000 O   0  0  0  0  0  0  0  0  0  0  0  0
    0.8838   -2.1500    0.0000 C   0  0  0  0  0  0  0  0  0  0  0  0
    0.0768   -2.3215    0.0000 N   0  0  0  0  0  0  0  0  0  0  0  0
   -0.1781   -3.1062    0.0000 C   0  0  0  0  0  0  0  0  0  0  0  0
    0.3739   -3.7192    0.0000 C   0  0  0  0  0  0  0  0  0  0  0  0
    1.1809   -3.5477    0.0000 F   0  0  0  0  0  0  0  0  0  0  0  0
    0.1190   -4.5039    0.0000 C   0  0  0  0  0  0  0  0  0  0  0  0
    0.6710   -5.1170    0.0000 F   0  0  0  0  0  0  0  0  0  0  0  0
   -0.6880   -4.6754    0.0000 C   0  0  0  0  0  0  0  0  0  0  0  0
   -0.9429   -5.4600    0.0000 C   0  0  0  0  0  0  0  0  0  0  0  0
   -0.3909   -6.0731    0.0000 C   0  0  0  0  0  0  0  0  0  0  0  0
   -0.6459   -6.8577    0.0000 C   0  0  0  0  0  0  0  0  0  0  0  0
   -1.4528   -7.0293    0.0000 C   0  0  0  0  0  0  0  0  0  0  0  0
   -2.0049   -6.4162    0.0000 C   0  0  0  0  0  0  0  0  0  0  0  0
   -1.7499   -5.6315    0.0000 C   0  0  0  0  0  0  0  0  0  0  0  0
   -1.2400   -4.0623    0.0000 C   0  0  0  0  0  0  0  0  0  0  0  0
   -2.0470   -4.2338    0.0000 F   0  0  0  0  0  0  0  0  0  0  0  0
   -0.9851   -3.2777    0.0000 C   0  0  0  0  0  0  0  0  0  0  0  0
   -1.5371   -2.6646    0.0000 F   0  0  0  0  0  0  0  0  0  0  0  0
    1.1387   -1.3654    0.0000 C   0  0  0  0  0  0  0  0  0  0  0  0
    0.6538   -0.6979    0.0000 C   0  0  0  0  0  0  0  0  0  0  0  0
   -0.1712   -0.6979    0.0000 O   0  0  0  0  0  0  0  0  0  0  0  0
    1.1387   -0.0305    0.0000 N   0  0  0  0  0  0  0  0  0  0  0  0
    1.9233   -0.2854    0.0000 N   0  0  0  0  0  0  0  0  0  0  0  0
    2.6378    0.1271    0.0000 C   0  0  0  0  0  0  0  0  0  0  0  0
    3.3523   -0.2854    0.0000 C   0  0  0  0  0  0  0  0  0  0  0  0
    3.3523   -1.1104    0.0000 C   0  0  0  0  0  0  0  0  0  0  0  0
    2.6378   -1.5229    0.0000 C   0  0  0  0  0  0  0  0  0  0  0  0
    1.9233   -1.1104    0.0000 C   0  0  0  0  0  0  0  0  0  0  0  0
  1  2  2  0  0  0  0
  2  3  1  0  0  0  0
  3  4  1  0  0  0  0
  4  5  4  0  0  0  0
  5  6  1  0  0  0  0
  5  7  4  0  0  0  0
  7  8  1  0  0  0  0
  7  9  4  0  0  0  0
  9 10  1  0  0  0  0
 10 11  4  0  0  0  0
 11 12  4  0  0  0  0
 12 13  4  0  0  0  0
 13 14  4  0  0  0  0
 14 15  4  0  0  0  0
 10 15  4  0  0  0  0
  9 16  4  0  0  0  0
 16 17  1  0  0  0  0
 16 18  4  0  0  0  0
  4 18  4  0  0  0  0
 18 19  1  0  0  0  0
  2 20  1  0  0  0  0
 20 21  4  0  0  0  0
 21 22  1  0  0  0  0
 21 23  4  0  0  0  0
 23 24  4  0  0  0  0
 24 25  4  0  0  0  0
 25 26  4  0  0  0  0
 26 27  4  0  0  0  0
 27 28  4  0  0  0  0
 28 29  4  0  0  0  0
 20 29  4  0  0  0  0
 24 29  4  0  0  0  0
M  END
> <IC50(uM)>
0.0012

> <Outcome>
1.0

> <BindingDB ID>
50990483

> <BindingDB MonomerID>
50281169

> <BindingDB Ligand Name>
CHEMBL4173846

> <Curation/DataSource>
ChEMBL

> <Article DOI>
10.1021/acs.jmedchem.8b00373

> <PMID>
29939742

> <Patent Number>
?

> <Authors>
Sainas, S; Pippione, AC; Lupino, E; Giorgis, M; Circosta, P; Gaidano, V; Goyal, P; Bonanni, D; Rolando, B; Cignetti, A; Ducime, A; Andersson, M; J??rv??, M; Friemann, R; Piccinini, M; Ramondetti, C; Buccinn??, B; Al-Karadaghi, S; Boschi, D; Saglio, G; Lolli, ML

> <Link to Ligand in BindingDB>
http://www.bindingdb.org/bind/chemsearch/marvin/MolStructure.jsp?monomerid=50281169

> <Link to Ligand-Target Pair in BindingDB>
http://www.bindingdb.org/jsp/dbsearch/PrimarySearch_ki.jsp?energyterm=kJ/mole&tag=r21&monomerid=50281169&enzyme=Dihydroorotate+dehydrogenase&column=ki&startPg=0&Increment=50&submit=Search

> <PubChem CID>
134686803

> <PubChem SID>
104122873

$$$$

  Mrv2115 07222212352D          

 23 25  0  0  0  0            999 V2000
    2.1434   -3.7125    0.0000 O   0  0  0  0  0  0  0  0  0  0  0  0
    1.4289   -4.1250    0.0000 C   0  0  0  0  0  0  0  0  0  0  0  0
    0.7145   -3.7125    0.0000 O   0  0  0  0  0  0  0  0  0  0  0  0
    1.4289   -4.9500    0.0000 C   0  0  0  0  0  0  0  0  0  0  0  0
    2.0964   -5.4349    0.0000 C   0  0  0  0  0  0  0  0  0  0  0  0
    1.8414   -6.2195    0.0000 S   0  0  0  0  0  0  0  0  0  0  0  0
    1.0164   -6.2195    0.0000 C   0  0  0  0  0  0  0  0  0  0  0  0
    0.7615   -5.4349    0.0000 C   0  0  0  0  0  0  0  0  0  0  0  0
   -0.0231   -5.1800    0.0000 C   0  0  0  0  0  0  0  0  0  0  0  0
   -0.1946   -4.3730    0.0000 O   0  0  0  0  0  0  0  0  0  0  0  0
   -0.6362   -5.7320    0.0000 N   0  0  0  0  0  0  0  0  0  0  0  0
   -1.4208   -5.4771    0.0000 C   0  0  0  0  0  0  0  0  0  0  0  0
   -2.0339   -6.0291    0.0000 C   0  0  0  0  0  0  0  0  0  0  0  0
   -2.8186   -5.7742    0.0000 C   0  0  0  0  0  0  0  0  0  0  0  0
   -2.9901   -4.9672    0.0000 C   0  0  0  0  0  0  0  0  0  0  0  0
   -3.7747   -4.7123    0.0000 C   0  0  0  0  0  0  0  0  0  0  0  0
   -4.3878   -5.2643    0.0000 C   0  0  0  0  0  0  0  0  0  0  0  0
   -5.1724   -5.0094    0.0000 C   0  0  0  0  0  0  0  0  0  0  0  0
   -5.3439   -4.2024    0.0000 C   0  0  0  0  0  0  0  0  0  0  0  0
   -4.7308   -3.6503    0.0000 C   0  0  0  0  0  0  0  0  0  0  0  0
   -3.9462   -3.9053    0.0000 C   0  0  0  0  0  0  0  0  0  0  0  0
   -2.3770   -4.4152    0.0000 C   0  0  0  0  0  0  0  0  0  0  0  0
   -1.5924   -4.6701    0.0000 C   0  0  0  0  0  0  0  0  0  0  0  0
  1  2  2  0  0  0  0
  2  3  1  0  0  0  0
  2  4  1  0  0  0  0
  4  5  4  0  0  0  0
  5  6  4  0  0  0  0
  6  7  4  0  0  0  0
  7  8  4  0  0  0  0
  4  8  4  0  0  0  0
  8  9  1  0  0  0  0
  9 10  2  0  0  0  0
  9 11  1  0  0  0  0
 11 12  1  0  0  0  0
 12 13  4  0  0  0  0
 13 14  4  0  0  0  0
 14 15  4  0  0  0  0
 15 16  1  0  0  0  0
 16 17  4  0  0  0  0
 17 18  4  0  0  0  0
 18 19  4  0  0  0  0
 19 20  4  0  0  0  0
 20 21  4  0  0  0  0
 16 21  4  0  0  0  0
 15 22  4  0  0  0  0
 22 23  4  0  0  0  0
 12 23  4  0  0  0  0
M  END
> <IC50(uM)>
1.0

> <Outcome>
1.0

> <BindingDB ID>
29222

> <BindingDB MonomerID>
16119

> <BindingDB Ligand Name>
4-[(4-phenylphenyl)carbamoyl]thiophene-3-carboxylic acid::Biphenyl-4-ylcarbamoyl Thiophene Analog 10

> <Curation/DataSource>
Curated from the literature by BindingDB

> <Article DOI>
10.1016/j.bmcl.2005.10.011

> <PMID>
16246558

> <Patent Number>
?

> <Authors>
Leban, J; Kralik, M; Mies, J; Baumgartner, R; Gassen, M; Tasler, S

> <Link to Ligand in BindingDB>
http://www.bindingdb.org/bind/chemsearch/marvin/MolStructure.jsp?monomerid=16119

> <Link to Ligand-Target Pair in BindingDB>
http://www.bindingdb.org/jsp/dbsearch/PrimarySearch_ki.jsp?energyterm=kJ/mole&tag=r21&monomerid=16119&enzyme=Dihydroorotate+Dehydrogenase+%28DHODH%29&column=ki&startPg=0&Increment=50&submit=Search

> <PubChem CID>
23647302

> <PubChem SID>
46516378

$$$$

  Mrv2115 07222212352D          

 36 39  0  0  0  0            999 V2000
   -3.8499   -2.1011    0.0000 C   0  0  0  0  0  0  0  0  0  0  0  0
   -3.8499   -2.9261    0.0000 C   0  0  0  0  0  0  0  0  0  0  0  0
   -4.5644   -3.3386    0.0000 C   0  0  0  0  0  0  0  0  0  0  0  0
   -4.5644   -4.1636    0.0000 C   0  0  0  0  0  0  0  0  0  0  0  0
   -3.8499   -4.5761    0.0000 C   0  0  0  0  0  0  0  0  0  0  0  0
   -3.1354   -4.1636    0.0000 C   0  0  0  0  0  0  0  0  0  0  0  0
   -2.4209   -4.5761    0.0000 F   0  0  0  0  0  0  0  0  0  0  0  0
   -3.1354   -3.3386    0.0000 C   0  0  0  0  0  0  0  0  0  0  0  0
   -2.4209   -2.9261    0.0000 N   0  0  0  0  0  0  0  0  0  0  0  0
   -1.7065   -3.3386    0.0000 C   0  0  0  0  0  0  0  0  0  0  0  0
   -1.7065   -4.1636    0.0000 O   0  0  0  0  0  0  0  0  0  0  0  0
   -0.9920   -2.9261    0.0000 C   0  0  0  0  0  0  0  0  0  0  0  0
   -0.9920   -2.1011    0.0000 C   0  0  0  0  0  0  0  0  0  0  0  0
   -0.2775   -1.6886    0.0000 C   0  0  0  0  0  0  0  0  0  0  0  0
   -0.2775   -0.8636    0.0000 F   0  0  0  0  0  0  0  0  0  0  0  0
    0.4369   -2.1011    0.0000 C   0  0  0  0  0  0  0  0  0  0  0  0
    1.1514   -1.6886    0.0000 N   0  0  0  0  0  0  0  0  0  0  0  0
    1.9051   -2.0241    0.0000 N   0  0  0  0  0  0  0  0  0  0  0  0
    2.4571   -1.4111    0.0000 C   0  0  0  0  0  0  0  0  0  0  0  0
    2.0446   -0.6966    0.0000 N   0  0  0  0  0  0  0  0  0  0  0  0
    1.2376   -0.8681    0.0000 C   0  0  0  0  0  0  0  0  0  0  0  0
    0.6245   -0.3161    0.0000 O   0  0  0  0  0  0  0  0  0  0  0  0
    2.4571    0.0179    0.0000 C   0  0  0  0  0  0  0  0  0  0  0  0
    3.2821    0.0179    0.0000 C   0  0  0  0  0  0  0  0  0  0  0  0
    3.6946   -0.6966    0.0000 O   0  0  0  0  0  0  0  0  0  0  0  0
    3.2821   -1.4111    0.0000 C   0  0  0  0  0  0  0  0  0  0  0  0
    0.4369   -2.9261    0.0000 C   0  0  0  0  0  0  0  0  0  0  0  0
   -0.2775   -3.3386    0.0000 C   0  0  0  0  0  0  0  0  0  0  0  0
   -0.2775   -4.1636    0.0000 O   0  0  0  0  0  0  0  0  0  0  0  0
    0.4369   -4.5761    0.0000 C   0  0  0  0  0  0  0  0  0  0  0  0
    0.4369   -5.4011    0.0000 C   0  0  0  0  0  0  0  0  0  0  0  0
    1.1514   -4.1636    0.0000 C   0  0  0  0  0  0  0  0  0  0  0  0
    1.8659   -4.5761    0.0000 C   0  0  0  0  0  0  0  0  0  0  0  0
    2.5803   -4.1636    0.0000 N   0  0  0  0  0  0  0  0  0  0  0  0
    2.5803   -3.3386    0.0000 C   0  0  0  0  0  0  0  0  0  0  0  0
    3.2948   -4.5761    0.0000 C   0  0  0  0  0  0  0  0  0  0  0  0
  1  2  1  0  0  0  0
  2  3  4  0  0  0  0
  3  4  4  0  0  0  0
  4  5  4  0  0  0  0
  5  6  4  0  0  0  0
  6  7  1  0  0  0  0
  6  8  4  0  0  0  0
  2  8  4  0  0  0  0
  8  9  1  0  0  0  0
  9 10  1  0  0  0  0
 10 11  2  0  0  0  0
 10 12  1  0  0  0  0
 12 13  4  0  0  0  0
 13 14  4  0  0  0  0
 14 15  1  0  0  0  0
 14 16  4  0  0  0  0
 16 17  1  0  0  0  0
 17 18  4  0  0  0  0
 18 19  4  0  0  0  0
 19 20  4  0  0  0  0
 20 21  4  0  0  0  0
 17 21  4  0  0  0  0
 21 22  2  0  0  0  0
 20 23  1  0  0  0  0
 23 24  1  0  0  0  0
 24 25  1  0  0  0  0
 25 26  1  0  0  0  0
 19 26  1  0  0  0  0
 16 27  4  0  0  0  0
 27 28  4  0  0  0  0
 12 28  4  0  0  0  0
 28 29  1  0  0  0  0
 29 30  1  0  0  0  0
 30 31  1  0  0  0  0
 30 32  1  0  0  0  0
 32 33  1  0  0  0  0
 33 34  1  0  0  0  0
 34 35  1  0  0  0  0
 34 36  1  0  0  0  0
M  END
> <IC50(uM)>
8.0

> <Outcome>
0.0

> <BindingDB ID>
1020683

> <BindingDB MonomerID>
490609

> <BindingDB Ligand Name>
US10968216, Example 277::rac-2-{[4-(dimethylamino) butan-2-yl]oxy}-5-fluoro-N-(2-fluoro-6-methylphenyl)-4-(3-oxo-5,6-dihydro-3H-[1,2,4]triazolo[3,4-c][1,4]oxazin-2(8H)-yl)benzamide

> <Curation/DataSource>
US Patent

> <Article DOI>
?

> <PMID>
?

> <Patent Number>
US10968216

> <Authors>
Gradl, SN; Nguyen, D; Eis, K; Gunther, J; Stellfeld, T; Janzer, A; Christian, S; Mueller, T; Sheikh, SE; Zhou, HJ; Zhao, C; Sykes, DB; Ferrara, SJ; Liu, K; Herbert, SA; Merz, C; Niehues, M; Nising, CF; Schafer, M; Zimmermann, K; Knablein, J; Thede, K; Faupel, T

> <Link to Ligand in BindingDB>
http://www.bindingdb.org/bind/chemsearch/marvin/MolStructure.jsp?monomerid=490609

> <Link to Ligand-Target Pair in BindingDB>
http://www.bindingdb.org/jsp/dbsearch/PrimarySearch_ki.jsp?energyterm=kJ/mole&tag=r21&monomerid=490609&enzyme=Dihydroorotate+dehydrogenase&column=ki&startPg=0&Increment=50&submit=Search

> <PubChem CID>
134474428

> <PubChem SID>
447117335

$$$$

  Mrv2115 07222212352D          

 39 42  0  0  0  0            999 V2000
    0.0000   -4.1250    0.0000 C   0  0  0  0  0  0  0  0  0  0  0  0
    0.0000   -4.9500    0.0000 C   0  0  0  0  0  0  0  0  0  0  0  0
    0.6674   -5.4349    0.0000 N   0  0  0  0  0  0  0  0  0  0  0  0
    0.4125   -6.2195    0.0000 N   0  0  0  0  0  0  0  0  0  0  0  0
    0.8974   -6.8870    0.0000 C   0  0  0  0  0  0  0  0  0  0  0  0
    1.7179   -6.8007    0.0000 C   0  0  0  0  0  0  0  0  0  0  0  0
    2.2028   -7.4682    0.0000 C   0  0  0  0  0  0  0  0  0  0  0  0
    3.0233   -7.3820    0.0000 O   0  0  0  0  0  0  0  0  0  0  0  0
    3.3589   -6.6283    0.0000 C   0  0  0  0  0  0  0  0  0  0  0  0
    2.8739   -5.9608    0.0000 C   0  0  0  0  0  0  0  0  0  0  0  0
    4.1793   -6.5420    0.0000 C   0  0  0  0  0  0  0  0  0  0  0  0
    4.5149   -5.7884    0.0000 C   0  0  0  0  0  0  0  0  0  0  0  0
    5.3354   -5.7021    0.0000 C   0  0  0  0  0  0  0  0  0  0  0  0
    5.8203   -6.3696    0.0000 C   0  0  0  0  0  0  0  0  0  0  0  0
    5.4847   -7.1232    0.0000 C   0  0  0  0  0  0  0  0  0  0  0  0
    4.6643   -7.2095    0.0000 C   0  0  0  0  0  0  0  0  0  0  0  0
    1.8673   -8.2219    0.0000 C   0  0  0  0  0  0  0  0  0  0  0  0
    2.3522   -8.8893    0.0000 C   0  0  0  0  0  0  0  0  0  0  0  0
    3.1727   -8.8031    0.0000 O   0  0  0  0  0  0  0  0  0  0  0  0
    2.0166   -9.6430    0.0000 N   0  0  0  0  0  0  0  0  0  0  0  0
    2.5016  -10.3104    0.0000 C   0  0  0  0  0  0  0  0  0  0  0  0
    3.3220  -10.2242    0.0000 C   0  0  0  0  0  0  0  0  0  0  0  0
    3.8070  -10.8916    0.0000 C   0  0  0  0  0  0  0  0  0  0  0  0
    3.4714  -11.6453    0.0000 C   0  0  0  0  0  0  0  0  0  0  0  0
    2.6509  -11.7315    0.0000 C   0  0  0  0  0  0  0  0  0  0  0  0
    2.3154  -12.4852    0.0000 C   0  0  0  0  0  0  0  0  0  0  0  0
    1.9798  -13.2389    0.0000 F   0  0  0  0  0  0  0  0  0  0  0  0
    3.0690  -12.8208    0.0000 F   0  0  0  0  0  0  0  0  0  0  0  0
    1.5617  -12.1496    0.0000 F   0  0  0  0  0  0  0  0  0  0  0  0
    2.1660  -11.0641    0.0000 C   0  0  0  0  0  0  0  0  0  0  0  0
    1.0468   -8.3081    0.0000 C   0  0  0  0  0  0  0  0  0  0  0  0
    0.5619   -7.6407    0.0000 C   0  0  0  0  0  0  0  0  0  0  0  0
   -0.2586   -7.7269    0.0000 F   0  0  0  0  0  0  0  0  0  0  0  0
   -0.4125   -6.2195    0.0000 C   0  0  0  0  0  0  0  0  0  0  0  0
   -0.8974   -6.8870    0.0000 O   0  0  0  0  0  0  0  0  0  0  0  0
   -0.6674   -5.4349    0.0000 N   0  0  0  0  0  0  0  0  0  0  0  0
   -1.4521   -5.1800    0.0000 C   0  0  0  0  0  0  0  0  0  0  0  0
   -2.0652   -5.7320    0.0000 C   0  0  0  0  0  0  0  0  0  0  0  0
   -1.6236   -4.3730    0.0000 C   0  0  0  0  0  0  0  0  0  0  0  0
  1  2  1  0  0  0  0
  2  3  4  0  0  0  0
  3  4  4  0  0  0  0
  4  5  1  0  0  0  0
  5  6  4  0  0  0  0
  6  7  4  0  0  0  0
  7  8  1  0  0  0  0
  8  9  1  0  0  0  0
  9 10  1  0  0  0  0
  9 11  1  0  0  0  0
 11 12  4  0  0  0  0
 12 13  4  0  0  0  0
 13 14  4  0  0  0  0
 14 15  4  0  0  0  0
 15 16  4  0  0  0  0
 11 16  4  0  0  0  0
  7 17  4  0  0  0  0
 17 18  1  0  0  0  0
 18 19  2  0  0  0  0
 18 20  1  0  0  0  0
 20 21  1  0  0  0  0
 21 22  4  0  0  0  0
 22 23  4  0  0  0  0
 23 24  4  0  0  0  0
 24 25  4  0  0  0  0
 25 26  1  0  0  0  0
 26 27  1  0  0  0  0
 26 28  1  0  0  0  0
 26 29  1  0  0  0  0
 25 30  4  0  0  0  0
 21 30  4  0  0  0  0
 17 31  4  0  0  0  0
 31 32  4  0  0  0  0
  5 32  4  0  0  0  0
 32 33  1  0  0  0  0
  4 34  4  0  0  0  0
 34 35  2  0  0  0  0
 34 36  4  0  0  0  0
  2 36  4  0  0  0  0
 36 37  1  0  0  0  0
 37 38  1  0  0  0  0
 37 39  1  0  0  0  0
M  END
> <IC50(uM)>
3.55

> <Outcome>
0.0

> <BindingDB ID>
1098602; 972448; 972447; 1098601

> <BindingDB MonomerID>
470347

> <BindingDB Ligand Name>
5-fluoro-4-[3-methyl-5-oxo-4-(propan-2-yl)-4,5-dihydro-1H-1,2,4-triazol-1-yl]-2-[(1S)-1-phenylethoxy]-N-[3-(trifluoromethyl)phenyl]benzamide::US10815215, Example 9::US11130745, Example 9; 5-fluoro-4-[3-methyl-5-oxo-4-(propan-2-yl)-4,5-dihydro-1H-1,2,4-triazol-1-yl]-2-[(1S)-1-phenylethoxy]-N-[3-(trifluoromethyl)phenyl]benzamide::US10815215, Example 9

> <Curation/DataSource>
US Patent

> <Article DOI>
?

> <PMID>
?

> <Patent Number>
US11130745; US10815215

> <Authors>
Gradl, SN; Nguyen, D; Eis, K; Gunther, J; Stellfeld, T; Janzer, A; Christian, S; Muller, T; Sheikh, SE; Sykes, DB; Ferrara, SJ; Krober, M; Merz, C; Niehues, M; Schafer, M; Zimmermann, K; Nising, CF; Gradl, SN; Nguyen, D; Eis, K; Gunther, J; Stellfeld, T; Janzer, A; Christian, S; Muller, T; Sheikh, SE; Zhou, HJ; Zhao, C; Sykes, DB; Ferrara, SJ; Liu, K; Krober, M; Merz, C; Niehues, M; Schafer, M; Zimmermann, K; Nising, CF

> <Link to Ligand in BindingDB>
http://www.bindingdb.org/bind/chemsearch/marvin/MolStructure.jsp?monomerid=470347

> <Link to Ligand-Target Pair in BindingDB>
http://www.bindingdb.org/jsp/dbsearch/PrimarySearch_ki.jsp?energyterm=kJ/mole&tag=r21&monomerid=470347&enzyme=Dihydroorotate+dehydrogenase&column=ki&startPg=0&Increment=50&submit=Search

> <PubChem CID>
134470360

> <PubChem SID>
441609524

$$$$

  Mrv2115 07222212352D          

 15 15  0  0  0  0            999 V2000
    0.0000   -2.4750    0.0000 C   0  0  0  0  0  0  0  0  0  0  0  0
    0.7145   -2.8875    0.0000 C   0  0  0  0  0  0  0  0  0  0  0  0
    0.7145   -3.7125    0.0000 O   0  0  0  0  0  0  0  0  0  0  0  0
    1.4289   -2.4750    0.0000 C   0  0  0  0  0  0  0  0  0  0  0  0
    1.4289   -1.6500    0.0000 C   0  0  0  0  0  0  0  0  0  0  0  0
    1.4289   -0.8250    0.0000 N   0  0  0  0  0  0  0  0  0  0  0  0
    2.1434   -2.8875    0.0000 C   0  0  0  0  0  0  0  0  0  0  0  0
    2.1434   -3.7125    0.0000 O   0  0  0  0  0  0  0  0  0  0  0  0
    2.8579   -2.4750    0.0000 N   0  0  0  0  0  0  0  0  0  0  0  0
    3.5724   -2.8875    0.0000 C   0  0  0  0  0  0  0  0  0  0  0  0
    4.2868   -2.4750    0.0000 C   0  0  0  0  0  0  0  0  0  0  0  0
    5.0013   -2.8875    0.0000 C   0  0  0  0  0  0  0  0  0  0  0  0
    5.0013   -3.7125    0.0000 C   0  0  0  0  0  0  0  0  0  0  0  0
    4.2868   -4.1250    0.0000 C   0  0  0  0  0  0  0  0  0  0  0  0
    3.5724   -3.7125    0.0000 C   0  0  0  0  0  0  0  0  0  0  0  0
  1  2  1  0  0  0  0
  2  3  2  0  0  0  0
  2  4  1  0  0  0  0
  4  5  1  0  0  0  0
  5  6  3  0  0  0  0
  4  7  1  0  0  0  0
  7  8  2  0  0  0  0
  7  9  1  0  0  0  0
  9 10  1  0  0  0  0
 10 11  4  0  0  0  0
 11 12  4  0  0  0  0
 12 13  4  0  0  0  0
 13 14  4  0  0  0  0
 14 15  4  0  0  0  0
 10 15  4  0  0  0  0
M  END
> <IC50(uM)>
15.2

> <Outcome>
0.0

> <BindingDB ID>
176938

> <BindingDB MonomerID>
85301

> <BindingDB Ligand Name>
Alpha-cyano-beta-hydroxy enamide, 2

> <Curation/DataSource>
Curated from the literature by BindingDB

> <Article DOI>
?

> <PMID>
?

> <Patent Number>
?

> <Authors>
Papagergiou, C; Zurini, M; Weber, HP; Borer, X

> <Link to Ligand in BindingDB>
http://www.bindingdb.org/bind/chemsearch/marvin/MolStructure.jsp?monomerid=85301

> <Link to Ligand-Target Pair in BindingDB>
http://www.bindingdb.org/jsp/dbsearch/PrimarySearch_ki.jsp?energyterm=kJ/mole&tag=r21&monomerid=85301&enzyme=Dihydroorotate+dehydrogenase&column=ki&startPg=0&Increment=50&submit=Search

> <PubChem CID>
9859061

> <PubChem SID>
136351401

$$$$

  Mrv2115 07222212352D          

 30 32  0  0  0  0            999 V2000
   -2.7679   -2.3346    0.0000 C   0  0  0  0  0  0  0  0  0  0  0  0
   -2.0535   -2.7471    0.0000 C   0  0  0  0  0  0  0  0  0  0  0  0
   -1.3390   -2.3346    0.0000 C   0  0  0  0  0  0  0  0  0  0  0  0
   -0.6245   -2.7471    0.0000 C   0  0  0  0  0  0  0  0  0  0  0  0
   -0.6245   -3.5721    0.0000 C   0  0  0  0  0  0  0  0  0  0  0  0
    0.0900   -2.3346    0.0000 N   0  0  0  0  0  0  0  0  0  0  0  0
    0.8044   -2.7471    0.0000 N   0  0  0  0  0  0  0  0  0  0  0  0
    1.5189   -2.3346    0.0000 C   0  0  0  0  0  0  0  0  0  0  0  0
    2.2334   -2.7471    0.0000 C   0  0  0  0  0  0  0  0  0  0  0  0
    2.9478   -2.3346    0.0000 C   0  0  0  0  0  0  0  0  0  0  0  0
    3.6623   -2.7471    0.0000 C   0  0  0  0  0  0  0  0  0  0  0  0
    3.6623   -3.5721    0.0000 C   0  0  0  0  0  0  0  0  0  0  0  0
    2.9478   -3.9846    0.0000 C   0  0  0  0  0  0  0  0  0  0  0  0
    2.2334   -3.5721    0.0000 C   0  0  0  0  0  0  0  0  0  0  0  0
    1.5189   -3.9846    0.0000 C   0  0  0  0  0  0  0  0  0  0  0  0
    0.8044   -3.5721    0.0000 O   0  0  0  0  0  0  0  0  0  0  0  0
    1.5189   -4.8096    0.0000 O   0  0  0  0  0  0  0  0  0  0  0  0
    0.0900   -1.5096    0.0000 C   0  0  0  0  0  0  0  0  0  0  0  0
   -0.5775   -1.0246    0.0000 N   0  0  0  0  0  0  0  0  0  0  0  0
   -0.3225   -0.2400    0.0000 C   0  0  0  0  0  0  0  0  0  0  0  0
   -0.8075    0.4274    0.0000 C   0  0  0  0  0  0  0  0  0  0  0  0
   -1.6280    0.3412    0.0000 C   0  0  0  0  0  0  0  0  0  0  0  0
   -2.1129    1.0086    0.0000 C   0  0  0  0  0  0  0  0  0  0  0  0
   -1.7773    1.7623    0.0000 C   0  0  0  0  0  0  0  0  0  0  0  0
   -0.9568    1.8485    0.0000 C   0  0  0  0  0  0  0  0  0  0  0  0
   -0.4719    1.1811    0.0000 C   0  0  0  0  0  0  0  0  0  0  0  0
    0.3486    1.2673    0.0000 Cl  0  0  0  0  0  0  0  0  0  0  0  0
    0.5025   -0.2400    0.0000 C   0  0  0  0  0  0  0  0  0  0  0  0
    0.9874    0.4274    0.0000 C   0  0  0  0  0  0  0  0  0  0  0  0
    0.7574   -1.0246    0.0000 S   0  0  0  0  0  0  0  0  0  0  0  0
  1  2  1  0  0  0  0
  2  3  1  0  0  0  0
  3  4  1  0  0  0  0
  4  5  1  0  0  0  0
  4  6  1  0  0  0  0
  6  7  1  0  0  0  0
  7  8  2  0  0  0  0
  8  9  1  0  0  0  0
  9 10  4  0  0  0  0
 10 11  4  0  0  0  0
 11 12  4  0  0  0  0
 12 13  4  0  0  0  0
 13 14  4  0  0  0  0
  9 14  4  0  0  0  0
 14 15  1  0  0  0  0
 15 16  2  0  0  0  0
 15 17  1  0  0  0  0
  6 18  1  0  0  0  0
 18 19  4  0  0  0  0
 19 20  4  0  0  0  0
 20 21  1  0  0  0  0
 21 22  4  0  0  0  0
 22 23  4  0  0  0  0
 23 24  4  0  0  0  0
 24 25  4  0  0  0  0
 25 26  4  0  0  0  0
 21 26  4  0  0  0  0
 26 27  1  0  0  0  0
 20 28  4  0  0  0  0
 28 29  1  0  0  0  0
 28 30  4  0  0  0  0
 18 30  4  0  0  0  0
M  END
> <IC50(uM)>
0.0154

> <Outcome>
1.0

> <BindingDB ID>
1001129

> <BindingDB MonomerID>
482815

> <BindingDB Ligand Name>
US10919869, No.  22

> <Curation/DataSource>
US Patent

> <Article DOI>
?

> <PMID>
?

> <Patent Number>
US10919869

> <Authors>
Li, H; Xu, Y; Wang, R; Zhao, Z; Song, W; Xu, L

> <Link to Ligand in BindingDB>
http://www.bindingdb.org/bind/chemsearch/marvin/MolStructure.jsp?monomerid=482815

> <Link to Ligand-Target Pair in BindingDB>
http://www.bindingdb.org/jsp/dbsearch/PrimarySearch_ki.jsp?energyterm=kJ/mole&tag=r21&monomerid=482815&enzyme=Dihydroorotate+dehydrogenase&column=ki&startPg=0&Increment=50&submit=Search

> <PubChem CID>
132157984

> <PubChem SID>
443551956

$$$$

  Mrv2115 07222212352D          

 37 40  0  0  0  0            999 V2000
    0.0000   -4.1250    0.0000 C   0  0  0  0  0  0  0  0  0  0  0  0
    0.0000   -4.9500    0.0000 C   0  0  0  0  0  0  0  0  0  0  0  0
    0.6674   -5.4349    0.0000 N   0  0  0  0  0  0  0  0  0  0  0  0
    0.4125   -6.2195    0.0000 N   0  0  0  0  0  0  0  0  0  0  0  0
    0.8974   -6.8870    0.0000 C   0  0  0  0  0  0  0  0  0  0  0  0
    1.7179   -6.8007    0.0000 C   0  0  0  0  0  0  0  0  0  0  0  0
    2.2028   -7.4682    0.0000 C   0  0  0  0  0  0  0  0  0  0  0  0
    3.0233   -7.3820    0.0000 O   0  0  0  0  0  0  0  0  0  0  0  0
    3.3589   -6.6283    0.0000 C   0  0  0  0  0  0  0  0  0  0  0  0
    2.8739   -5.9608    0.0000 C   0  0  0  0  0  0  0  0  0  0  0  0
    4.1793   -6.5420    0.0000 C   0  0  0  0  0  0  0  0  0  0  0  0
    4.5149   -5.7884    0.0000 C   0  0  0  0  0  0  0  0  0  0  0  0
    5.3354   -5.7021    0.0000 C   0  0  0  0  0  0  0  0  0  0  0  0
    5.8203   -6.3696    0.0000 C   0  0  0  0  0  0  0  0  0  0  0  0
    5.4847   -7.1232    0.0000 C   0  0  0  0  0  0  0  0  0  0  0  0
    4.6643   -7.2095    0.0000 C   0  0  0  0  0  0  0  0  0  0  0  0
    1.8673   -8.2219    0.0000 C   0  0  0  0  0  0  0  0  0  0  0  0
    2.3522   -8.8893    0.0000 C   0  0  0  0  0  0  0  0  0  0  0  0
    3.1727   -8.8031    0.0000 O   0  0  0  0  0  0  0  0  0  0  0  0
    2.0166   -9.6430    0.0000 N   0  0  0  0  0  0  0  0  0  0  0  0
    2.5016  -10.3104    0.0000 C   0  0  0  0  0  0  0  0  0  0  0  0
    3.3220  -10.2242    0.0000 C   0  0  0  0  0  0  0  0  0  0  0  0
    3.6576   -9.4705    0.0000 F   0  0  0  0  0  0  0  0  0  0  0  0
    3.8070  -10.8916    0.0000 C   0  0  0  0  0  0  0  0  0  0  0  0
    3.4714  -11.6453    0.0000 C   0  0  0  0  0  0  0  0  0  0  0  0
    2.6509  -11.7315    0.0000 C   0  0  0  0  0  0  0  0  0  0  0  0
    2.1660  -11.0641    0.0000 C   0  0  0  0  0  0  0  0  0  0  0  0
    1.3455  -11.1503    0.0000 F   0  0  0  0  0  0  0  0  0  0  0  0
    1.0468   -8.3081    0.0000 C   0  0  0  0  0  0  0  0  0  0  0  0
    0.5619   -7.6407    0.0000 C   0  0  0  0  0  0  0  0  0  0  0  0
   -0.2586   -7.7269    0.0000 F   0  0  0  0  0  0  0  0  0  0  0  0
   -0.4125   -6.2195    0.0000 C   0  0  0  0  0  0  0  0  0  0  0  0
   -0.8974   -6.8870    0.0000 O   0  0  0  0  0  0  0  0  0  0  0  0
   -0.6674   -5.4349    0.0000 N   0  0  0  0  0  0  0  0  0  0  0  0
   -1.4521   -5.1800    0.0000 C   0  0  0  0  0  0  0  0  0  0  0  0
   -2.0652   -5.7320    0.0000 C   0  0  0  0  0  0  0  0  0  0  0  0
   -1.6236   -4.3730    0.0000 C   0  0  0  0  0  0  0  0  0  0  0  0
  1  2  1  0  0  0  0
  2  3  4  0  0  0  0
  3  4  4  0  0  0  0
  4  5  1  0  0  0  0
  5  6  4  0  0  0  0
  6  7  4  0  0  0  0
  7  8  1  0  0  0  0
  8  9  1  0  0  0  0
  9 10  1  0  0  0  0
  9 11  1  0  0  0  0
 11 12  4  0  0  0  0
 12 13  4  0  0  0  0
 13 14  4  0  0  0  0
 14 15  4  0  0  0  0
 15 16  4  0  0  0  0
 11 16  4  0  0  0  0
  7 17  4  0  0  0  0
 17 18  1  0  0  0  0
 18 19  2  0  0  0  0
 18 20  1  0  0  0  0
 20 21  1  0  0  0  0
 21 22  4  0  0  0  0
 22 23  1  0  0  0  0
 22 24  4  0  0  0  0
 24 25  4  0  0  0  0
 25 26  4  0  0  0  0
 26 27  4  0  0  0  0
 21 27  4  0  0  0  0
 27 28  1  0  0  0  0
 17 29  4  0  0  0  0
 29 30  4  0  0  0  0
  5 30  4  0  0  0  0
 30 31  1  0  0  0  0
  4 32  4  0  0  0  0
 32 33  2  0  0  0  0
 32 34  4  0  0  0  0
  2 34  4  0  0  0  0
 34 35  1  0  0  0  0
 35 36  1  0  0  0  0
 35 37  1  0  0  0  0
M  END
> <IC50(uM)>
0.06225

> <Outcome>
1.0

> <BindingDB ID>
1098600; 972446; 972445; 1098599

> <BindingDB MonomerID>
470346

> <BindingDB Ligand Name>
N-(2,6-difluorophenyl)-5-fluoro-4-[3-methyl-5-oxo-4-(propan-2-yl)-4,5-dihydro-1H-1,2,4-triazol-1-yl]-2-[(1S)-1-phenylethoxy]benzamide::US10815215, Example 8::US11130745, Example 8; N-(2,6-difluorophenyl)-5-fluoro-4-[3-methyl-5-oxo-4-(propan-2-yl)-4,5-dihydro-1H-1,2,4-triazol-1-yl]-2-[(1S)-1-phenylethoxy]benzamide::US10815215, Example 8

> <Curation/DataSource>
US Patent

> <Article DOI>
?

> <PMID>
?

> <Patent Number>
US11130745; US10815215

> <Authors>
Gradl, SN; Nguyen, D; Eis, K; Gunther, J; Stellfeld, T; Janzer, A; Christian, S; Muller, T; Sheikh, SE; Sykes, DB; Ferrara, SJ; Krober, M; Merz, C; Niehues, M; Schafer, M; Zimmermann, K; Nising, CF; Gradl, SN; Nguyen, D; Eis, K; Gunther, J; Stellfeld, T; Janzer, A; Christian, S; Muller, T; Sheikh, SE; Zhou, HJ; Zhao, C; Sykes, DB; Ferrara, SJ; Liu, K; Krober, M; Merz, C; Niehues, M; Schafer, M; Zimmermann, K; Nising, CF

> <Link to Ligand in BindingDB>
http://www.bindingdb.org/bind/chemsearch/marvin/MolStructure.jsp?monomerid=470346

> <Link to Ligand-Target Pair in BindingDB>
http://www.bindingdb.org/jsp/dbsearch/PrimarySearch_ki.jsp?energyterm=kJ/mole&tag=r21&monomerid=470346&enzyme=Dihydroorotate+dehydrogenase&column=ki&startPg=0&Increment=50&submit=Search

> <PubChem CID>
134469791

> <PubChem SID>
441609523

$$$$

  Mrv2115 07222212352D          

 23 24  0  0  0  0            999 V2000
    0.6078    1.1759    0.0000 C   0  0  0  0  0  0  0  0  0  0  0  0
    1.3222    0.7634    0.0000 C   0  0  0  0  0  0  0  0  0  0  0  0
    1.3222   -0.0616    0.0000 O   0  0  0  0  0  0  0  0  0  0  0  0
    2.0367   -0.4741    0.0000 C   0  0  0  0  0  0  0  0  0  0  0  0
    2.7512   -0.0616    0.0000 O   0  0  0  0  0  0  0  0  0  0  0  0
    2.0367   -1.2991    0.0000 C   0  0  0  0  0  0  0  0  0  0  0  0
    2.7041   -1.7840    0.0000 S   0  0  0  0  0  0  0  0  0  0  0  0
    2.4492   -2.5687    0.0000 C   0  0  0  0  0  0  0  0  0  0  0  0
    2.9341   -3.2361    0.0000 N   0  0  0  0  0  0  0  0  0  0  0  0
    2.5986   -3.9898    0.0000 C   0  0  0  0  0  0  0  0  0  0  0  0
    3.0835   -4.6572    0.0000 C   0  0  0  0  0  0  0  0  0  0  0  0
    2.7479   -5.4109    0.0000 C   0  0  0  0  0  0  0  0  0  0  0  0
    1.9275   -5.4971    0.0000 C   0  0  0  0  0  0  0  0  0  0  0  0
    1.5919   -6.2508    0.0000 Cl  0  0  0  0  0  0  0  0  0  0  0  0
    1.4425   -4.8297    0.0000 C   0  0  0  0  0  0  0  0  0  0  0  0
    0.6221   -4.9159    0.0000 C   0  0  0  0  0  0  0  0  0  0  0  0
   -0.1984   -5.0021    0.0000 F   0  0  0  0  0  0  0  0  0  0  0  0
    0.5358   -4.0954    0.0000 F   0  0  0  0  0  0  0  0  0  0  0  0
    0.7083   -5.7364    0.0000 F   0  0  0  0  0  0  0  0  0  0  0  0
    1.7781   -4.0760    0.0000 C   0  0  0  0  0  0  0  0  0  0  0  0
    1.6242   -2.5687    0.0000 N   0  0  0  0  0  0  0  0  0  0  0  0
    1.3693   -1.7840    0.0000 C   0  0  0  0  0  0  0  0  0  0  0  0
    0.5846   -1.5291    0.0000 N   0  0  0  0  0  0  0  0  0  0  0  0
  1  2  1  0  0  0  0
  2  3  1  0  0  0  0
  3  4  1  0  0  0  0
  4  5  2  0  0  0  0
  4  6  1  0  0  0  0
  6  7  4  0  0  0  0
  7  8  4  0  0  0  0
  8  9  1  0  0  0  0
  9 10  1  0  0  0  0
 10 11  4  0  0  0  0
 11 12  4  0  0  0  0
 12 13  4  0  0  0  0
 13 14  1  0  0  0  0
 13 15  4  0  0  0  0
 15 16  1  0  0  0  0
 16 17  1  0  0  0  0
 16 18  1  0  0  0  0
 16 19  1  0  0  0  0
 15 20  4  0  0  0  0
 10 20  4  0  0  0  0
  8 21  4  0  0  0  0
 21 22  4  0  0  0  0
  6 22  4  0  0  0  0
 22 23  1  0  0  0  0
M  END
> <IC50(uM)>
10.0

> <Outcome>
0.0

> <BindingDB ID>
50312468

> <BindingDB MonomerID>
50071758

> <BindingDB Ligand Name>
CHEMBL3410583

> <Curation/DataSource>
ChEMBL

> <Article DOI>
10.1021/jm501127s

> <PMID>
25580811

> <Patent Number>
?

> <Authors>
Zhu, J; Han, L; Diao, Y; Ren, X; Xu, M; Xu, L; Li, S; Li, Q; Dong, D; Huang, J; Liu, X; Zhao, Z; Wang, R; Zhu, L; Xu, Y; Qian, X; Li, H

> <Link to Ligand in BindingDB>
http://www.bindingdb.org/bind/chemsearch/marvin/MolStructure.jsp?monomerid=50071758

> <Link to Ligand-Target Pair in BindingDB>
http://www.bindingdb.org/jsp/dbsearch/PrimarySearch_ki.jsp?energyterm=kJ/mole&tag=r21&monomerid=50071758&enzyme=Dihydroorotate+dehydrogenase&column=ki&startPg=0&Increment=50&submit=Search

> <PubChem CID>
118732499

> <PubChem SID>
103965468

$$$$

  Mrv2115 07222212352D          

 30 32  0  0  0  0            999 V2000
   -1.4289   -3.3000    0.0000 N   0  0  0  0  0  0  0  0  0  0  0  0
   -0.7145   -2.8875    0.0000 C   0  0  0  0  0  0  0  0  0  0  0  0
    0.0000   -2.4750    0.0000 C   0  0  0  0  0  0  0  0  0  0  0  0
    0.0000   -1.6500    0.0000 C   0  0  0  0  0  0  0  0  0  0  0  0
    0.7145   -1.2375    0.0000 C   0  0  0  0  0  0  0  0  0  0  0  0
    0.7145   -0.4125    0.0000 C   0  0  0  0  0  0  0  0  0  0  0  0
    0.0000    0.0000    0.0000 C   0  0  0  0  0  0  0  0  0  0  0  0
    0.0000    0.8250    0.0000 C   0  0  0  0  0  0  0  0  0  0  0  0
    0.7145    1.2375    0.0000 C   0  0  0  0  0  0  0  0  0  0  0  0
    1.4289    0.8250    0.0000 C   0  0  0  0  0  0  0  0  0  0  0  0
    2.1434    1.2375    0.0000 O   0  0  0  0  0  0  0  0  0  0  0  0
    2.1434    2.0625    0.0000 C   0  0  0  0  0  0  0  0  0  0  0  0
    2.1434    2.8875    0.0000 F   0  0  0  0  0  0  0  0  0  0  0  0
    1.3184    2.0625    0.0000 F   0  0  0  0  0  0  0  0  0  0  0  0
    2.9684    2.0625    0.0000 F   0  0  0  0  0  0  0  0  0  0  0  0
    1.4289    0.0000    0.0000 C   0  0  0  0  0  0  0  0  0  0  0  0
    1.4289   -1.6500    0.0000 C   0  0  0  0  0  0  0  0  0  0  0  0
    1.4289   -2.4750    0.0000 C   0  0  0  0  0  0  0  0  0  0  0  0
    0.7145   -2.8875    0.0000 C   0  0  0  0  0  0  0  0  0  0  0  0
    0.7145   -3.7125    0.0000 N   0  0  0  0  0  0  0  0  0  0  0  0
    1.4289   -4.1250    0.0000 C   0  0  0  0  0  0  0  0  0  0  0  0
    2.1434   -3.7125    0.0000 O   0  0  0  0  0  0  0  0  0  0  0  0
    1.4289   -4.9500    0.0000 C   0  0  0  0  0  0  0  0  0  0  0  0
    2.0964   -5.4349    0.0000 C   0  0  0  0  0  0  0  0  0  0  0  0
    2.8810   -5.1800    0.0000 C   0  0  0  0  0  0  0  0  0  0  0  0
    3.0525   -4.3730    0.0000 O   0  0  0  0  0  0  0  0  0  0  0  0
    3.4941   -5.7320    0.0000 O   0  0  0  0  0  0  0  0  0  0  0  0
    1.8414   -6.2195    0.0000 C   0  0  0  0  0  0  0  0  0  0  0  0
    1.0164   -6.2195    0.0000 C   0  0  0  0  0  0  0  0  0  0  0  0
    0.7615   -5.4349    0.0000 C   0  0  0  0  0  0  0  0  0  0  0  0
  1  2  3  0  0  0  0
  2  3  1  0  0  0  0
  3  4  4  0  0  0  0
  4  5  4  0  0  0  0
  5  6  1  0  0  0  0
  6  7  4  0  0  0  0
  7  8  4  0  0  0  0
  8  9  4  0  0  0  0
  9 10  4  0  0  0  0
 10 11  1  0  0  0  0
 11 12  1  0  0  0  0
 12 13  1  0  0  0  0
 12 14  1  0  0  0  0
 12 15  1  0  0  0  0
 10 16  4  0  0  0  0
  6 16  4  0  0  0  0
  5 17  4  0  0  0  0
 17 18  4  0  0  0  0
 18 19  4  0  0  0  0
  3 19  4  0  0  0  0
 19 20  1  0  0  0  0
 20 21  1  0  0  0  0
 21 22  2  0  0  0  0
 21 23  1  0  0  0  0
 23 24  2  0  0  0  0
 24 25  1  0  0  0  0
 25 26  2  0  0  0  0
 25 27  1  0  0  0  0
 24 28  1  0  0  0  0
 28 29  1  0  0  0  0
 29 30  1  0  0  0  0
 23 30  1  0  0  0  0
M  END
> <IC50(uM)>
0.37

> <Outcome>
1.0

> <BindingDB ID>
50251723

> <BindingDB MonomerID>
50137305

> <BindingDB Ligand Name>
2-(3-Cyano-3'-trifluoromethoxy-biphenyl-4-ylcarbamoyl)-cyclopent-1-enecarboxylic acid::CHEMBL154336

> <Curation/DataSource>
ChEMBL

> <Article DOI>
10.1016/j.bmcl.2003.10.021

> <PMID>
14684297

> <Patent Number>
?

> <Authors>
Leban, J; Saeb, W; Garcia, G; Baumgartner, R; Kramer, B

> <Link to Ligand in BindingDB>
http://www.bindingdb.org/bind/chemsearch/marvin/MolStructure.jsp?monomerid=50137305

> <Link to Ligand-Target Pair in BindingDB>
http://www.bindingdb.org/jsp/dbsearch/PrimarySearch_ki.jsp?energyterm=kJ/mole&tag=r21&monomerid=50137305&enzyme=Dihydroorotate+dehydrogenase&column=ki&startPg=0&Increment=50&submit=Search

> <PubChem CID>
44369555

> <PubChem SID>
104027471

$$$$

  Mrv2115 07222212352D          

 23 25  0  0  0  0            999 V2000
    0.7145   -3.7125    0.0000 O   0  0  0  0  0  0  0  0  0  0  0  0
   -0.0000   -4.1250    0.0000 C   0  0  0  0  0  0  0  0  0  0  0  0
   -0.0000   -4.9500    0.0000 O   0  0  0  0  0  0  0  0  0  0  0  0
   -0.7145   -3.7125    0.0000 C   0  0  0  0  0  0  0  0  0  0  0  0
   -1.4289   -4.1250    0.0000 N   0  0  0  0  0  0  0  0  0  0  0  0
   -2.1434   -3.7125    0.0000 C   0  0  0  0  0  0  0  0  0  0  0  0
   -2.8579   -4.1250    0.0000 O   0  0  0  0  0  0  0  0  0  0  0  0
   -2.1434   -2.8875    0.0000 N   0  0  0  0  0  0  0  0  0  0  0  0
   -1.4289   -2.4750    0.0000 C   0  0  0  0  0  0  0  0  0  0  0  0
   -1.4289   -1.6500    0.0000 O   0  0  0  0  0  0  0  0  0  0  0  0
   -0.7145   -2.8875    0.0000 C   0  0  0  0  0  0  0  0  0  0  0  0
    0.0000   -2.4750    0.0000 C   0  0  0  0  0  0  0  0  0  0  0  0
    0.0000   -1.6500    0.0000 C   0  0  0  0  0  0  0  0  0  0  0  0
    0.7145   -1.2375    0.0000 C   0  0  0  0  0  0  0  0  0  0  0  0
    0.7145   -0.4125    0.0000 C   0  0  0  0  0  0  0  0  0  0  0  0
    1.4289    0.0000    0.0000 N   0  0  0  0  0  0  0  0  0  0  0  0
    2.1434   -0.4125    0.0000 C   0  0  0  0  0  0  0  0  0  0  0  0
    2.8579    0.0000    0.0000 C   0  0  0  0  0  0  0  0  0  0  0  0
    3.5724   -0.4125    0.0000 C   0  0  0  0  0  0  0  0  0  0  0  0
    3.5724   -1.2375    0.0000 C   0  0  0  0  0  0  0  0  0  0  0  0
    2.8579   -1.6500    0.0000 C   0  0  0  0  0  0  0  0  0  0  0  0
    2.1434   -1.2375    0.0000 C   0  0  0  0  0  0  0  0  0  0  0  0
    1.4289   -1.6500    0.0000 C   0  0  0  0  0  0  0  0  0  0  0  0
  1  2  2  0  0  0  0
  2  3  1  0  0  0  0
  2  4  1  0  0  0  0
  4  5  4  0  0  0  0
  5  6  4  0  0  0  0
  6  7  2  0  0  0  0
  6  8  4  0  0  0  0
  8  9  4  0  0  0  0
  9 10  2  0  0  0  0
  9 11  4  0  0  0  0
  4 11  4  0  0  0  0
 11 12  1  0  0  0  0
 12 13  1  0  0  0  0
 13 14  1  0  0  0  0
 14 15  4  0  0  0  0
 15 16  4  0  0  0  0
 16 17  4  0  0  0  0
 17 18  4  0  0  0  0
 18 19  4  0  0  0  0
 19 20  4  0  0  0  0
 20 21  4  0  0  0  0
 21 22  4  0  0  0  0
 17 22  4  0  0  0  0
 22 23  4  0  0  0  0
 14 23  4  0  0  0  0
M  STY  2   1 DAT   2 DAT
M  SAL   1  1   5
M  SDT   1 MRV_IMPLICIT_H                                        
M  SDD   1     0.6482   -0.4125    DR    ALL  0       0  
M  SED   1 IMPL_H1
M  SAL   2  1   8
M  SDT   2 MRV_IMPLICIT_H                                        
M  SDD   2     0.5304   -0.4125    DR    ALL  0       0  
M  SED   2 IMPL_H1
M  END
> <IC50(uM)>
2.6

> <Outcome>
0.0

> <BindingDB ID>
50555217

> <BindingDB MonomerID>
50211693

> <BindingDB Ligand Name>
CHEMBL3908781

> <Curation/DataSource>
ChEMBL

> <Article DOI>
10.1016/j.bmc.2017.01.009

> <PMID>
28118956

> <Patent Number>
?

> <Authors>
Inaoka, DK; Iida, M; Hashimoto, S; Tabuchi, T; Kuranaga, T; Balogun, EO; Honma, T; Tanaka, A; Harada, S; Nara, T; Kita, K; Inoue, M

> <Link to Ligand in BindingDB>
http://www.bindingdb.org/bind/chemsearch/marvin/MolStructure.jsp?monomerid=50211693

> <Link to Ligand-Target Pair in BindingDB>
http://www.bindingdb.org/jsp/dbsearch/PrimarySearch_ki.jsp?energyterm=kJ/mole&tag=r21&monomerid=50211693&enzyme=Dihydroorotate+dehydrogenase&column=ki&startPg=0&Increment=50&submit=Search

> <PubChem CID>
134132876

> <PubChem SID>
375983036

$$$$

  Mrv2115 07222212352D          

 37 40  0  0  0  0            999 V2000
   -5.1659    1.4455    0.0000 C   0  0  0  0  0  0  0  0  0  0  0  0
   -5.5784    0.7310    0.0000 C   0  0  0  0  0  0  0  0  0  0  0  0
   -6.4034    0.7310    0.0000 C   0  0  0  0  0  0  0  0  0  0  0  0
   -6.8159    0.0165    0.0000 C   0  0  0  0  0  0  0  0  0  0  0  0
   -6.4034   -0.6979    0.0000 C   0  0  0  0  0  0  0  0  0  0  0  0
   -6.8159   -1.4124    0.0000 C   0  0  0  0  0  0  0  0  0  0  0  0
   -6.4034   -2.1269    0.0000 O   0  0  0  0  0  0  0  0  0  0  0  0
   -7.6409   -1.4124    0.0000 O   0  0  0  0  0  0  0  0  0  0  0  0
   -5.5784   -0.6979    0.0000 C   0  0  0  0  0  0  0  0  0  0  0  0
   -5.1659    0.0165    0.0000 C   0  0  0  0  0  0  0  0  0  0  0  0
   -4.3409    0.0165    0.0000 N   0  0  0  0  0  0  0  0  0  0  0  0
   -3.9284   -0.6979    0.0000 C   0  0  0  0  0  0  0  0  0  0  0  0
   -4.3409   -1.4124    0.0000 O   0  0  0  0  0  0  0  0  0  0  0  0
   -3.1034   -0.6979    0.0000 C   0  0  0  0  0  0  0  0  0  0  0  0
   -2.6909    0.0165    0.0000 C   0  0  0  0  0  0  0  0  0  0  0  0
   -1.8659    0.0165    0.0000 C   0  0  0  0  0  0  0  0  0  0  0  0
   -1.4534    0.7310    0.0000 F   0  0  0  0  0  0  0  0  0  0  0  0
   -1.4534   -0.6979    0.0000 C   0  0  0  0  0  0  0  0  0  0  0  0
   -0.6284   -0.6979    0.0000 N   0  0  0  0  0  0  0  0  0  0  0  0
   -0.1435   -1.3654    0.0000 N   0  0  0  0  0  0  0  0  0  0  0  0
    0.6411   -1.1104    0.0000 C   0  0  0  0  0  0  0  0  0  0  0  0
    0.6411   -0.2854    0.0000 N   0  0  0  0  0  0  0  0  0  0  0  0
   -0.1435   -0.0305    0.0000 C   0  0  0  0  0  0  0  0  0  0  0  0
   -0.3984    0.7541    0.0000 O   0  0  0  0  0  0  0  0  0  0  0  0
    1.3556    0.1271    0.0000 C   0  0  0  0  0  0  0  0  0  0  0  0
    2.0701   -0.2854    0.0000 C   0  0  0  0  0  0  0  0  0  0  0  0
    2.0701   -1.1104    0.0000 C   0  0  0  0  0  0  0  0  0  0  0  0
    1.3556   -1.5229    0.0000 C   0  0  0  0  0  0  0  0  0  0  0  0
   -1.8659   -1.4124    0.0000 C   0  0  0  0  0  0  0  0  0  0  0  0
   -2.6909   -1.4124    0.0000 C   0  0  0  0  0  0  0  0  0  0  0  0
   -3.1034   -2.1269    0.0000 O   0  0  0  0  0  0  0  0  0  0  0  0
   -2.6909   -2.8414    0.0000 C   0  0  0  0  0  0  0  0  0  0  0  0
   -1.8659   -2.8414    0.0000 C   0  0  0  0  0  0  0  0  0  0  0  0
   -3.1034   -3.5558    0.0000 C   0  0  0  0  0  0  0  0  0  0  0  0
   -3.8179   -3.1433    0.0000 F   0  0  0  0  0  0  0  0  0  0  0  0
   -2.3890   -3.9683    0.0000 F   0  0  0  0  0  0  0  0  0  0  0  0
   -3.5159   -4.2703    0.0000 F   0  0  0  0  0  0  0  0  0  0  0  0
  1  2  1  0  0  0  0
  2  3  4  0  0  0  0
  3  4  4  0  0  0  0
  4  5  4  0  0  0  0
  5  6  1  0  0  0  0
  6  7  2  0  0  0  0
  6  8  1  0  0  0  0
  5  9  4  0  0  0  0
  9 10  4  0  0  0  0
  2 10  4  0  0  0  0
 10 11  1  0  0  0  0
 11 12  1  0  0  0  0
 12 13  2  0  0  0  0
 12 14  1  0  0  0  0
 14 15  4  0  0  0  0
 15 16  4  0  0  0  0
 16 17  1  0  0  0  0
 16 18  4  0  0  0  0
 18 19  1  0  0  0  0
 19 20  4  0  0  0  0
 20 21  4  0  0  0  0
 21 22  4  0  0  0  0
 22 23  4  0  0  0  0
 19 23  4  0  0  0  0
 23 24  2  0  0  0  0
 22 25  1  0  0  0  0
 25 26  1  0  0  0  0
 26 27  1  0  0  0  0
 27 28  1  0  0  0  0
 21 28  1  0  0  0  0
 18 29  4  0  0  0  0
 29 30  4  0  0  0  0
 14 30  4  0  0  0  0
 30 31  1  0  0  0  0
 31 32  1  0  0  0  0
 32 33  1  0  0  0  0
 32 34  1  0  0  0  0
 34 35  1  0  0  0  0
 34 36  1  0  0  0  0
 34 37  1  0  0  0  0
M  END
> <IC50(uM)>
30.0

> <Outcome>
0.0

> <BindingDB ID>
1020481

> <BindingDB MonomerID>
490429

> <BindingDB Ligand Name>
3-{[5-fluoro-4-(3-oxo-5,6,7,8-tetrahydro[1,2,4]triazolo[4,3-a]pyridin-2(3H)-yl)-2-{[(2S)-1,1,1-trifluoropropan-2-yl]oxy}benzoyl]amino}-4-methylbenzoic Acid::US10968216, Example 97

> <Curation/DataSource>
US Patent

> <Article DOI>
?

> <PMID>
?

> <Patent Number>
US10968216

> <Authors>
Gradl, SN; Nguyen, D; Eis, K; Gunther, J; Stellfeld, T; Janzer, A; Christian, S; Mueller, T; Sheikh, SE; Zhou, HJ; Zhao, C; Sykes, DB; Ferrara, SJ; Liu, K; Herbert, SA; Merz, C; Niehues, M; Nising, CF; Schafer, M; Zimmermann, K; Knablein, J; Thede, K; Faupel, T

> <Link to Ligand in BindingDB>
http://www.bindingdb.org/bind/chemsearch/marvin/MolStructure.jsp?monomerid=490429

> <Link to Ligand-Target Pair in BindingDB>
http://www.bindingdb.org/jsp/dbsearch/PrimarySearch_ki.jsp?energyterm=kJ/mole&tag=r21&monomerid=490429&enzyme=Dihydroorotate+dehydrogenase&column=ki&startPg=0&Increment=50&submit=Search

> <PubChem CID>
134474121

> <PubChem SID>
447117156

$$$$

  Mrv2115 07222212352D          

 30 32  0  0  0  0            999 V2000
   -0.7145   -0.4125    0.0000 C   0  0  0  0  0  0  0  0  0  0  0  0
   -0.7145   -1.2375    0.0000 C   0  0  0  0  0  0  0  0  0  0  0  0
   -1.4289   -1.6500    0.0000 C   0  0  0  0  0  0  0  0  0  0  0  0
   -2.1434   -1.2375    0.0000 C   0  0  0  0  0  0  0  0  0  0  0  0
   -2.8579   -1.6500    0.0000 C   0  0  0  0  0  0  0  0  0  0  0  0
   -3.5724   -1.2375    0.0000 C   0  0  0  0  0  0  0  0  0  0  0  0
   -3.5724   -0.4125    0.0000 C   0  0  0  0  0  0  0  0  0  0  0  0
   -2.8579   -0.0000    0.0000 C   0  0  0  0  0  0  0  0  0  0  0  0
   -2.8579    0.8250    0.0000 O   0  0  0  0  0  0  0  0  0  0  0  0
   -3.5724    1.2375    0.0000 C   0  0  0  0  0  0  0  0  0  0  0  0
   -4.2868    1.6500    0.0000 F   0  0  0  0  0  0  0  0  0  0  0  0
   -3.9849    0.5230    0.0000 F   0  0  0  0  0  0  0  0  0  0  0  0
   -3.1599    1.9520    0.0000 F   0  0  0  0  0  0  0  0  0  0  0  0
   -2.1434   -0.4125    0.0000 C   0  0  0  0  0  0  0  0  0  0  0  0
   -1.4289   -2.4750    0.0000 C   0  0  0  0  0  0  0  0  0  0  0  0
   -0.7145   -2.8875    0.0000 C   0  0  0  0  0  0  0  0  0  0  0  0
   -0.7145   -3.7125    0.0000 F   0  0  0  0  0  0  0  0  0  0  0  0
    0.0000   -2.4750    0.0000 C   0  0  0  0  0  0  0  0  0  0  0  0
    0.7145   -2.8875    0.0000 N   0  0  0  0  0  0  0  0  0  0  0  0
    1.4289   -2.4750    0.0000 C   0  0  0  0  0  0  0  0  0  0  0  0
    1.4289   -1.6500    0.0000 N   0  0  0  0  0  0  0  0  0  0  0  0
    2.1434   -1.2375    0.0000 C   0  0  0  0  0  0  0  0  0  0  0  0
    2.8579   -1.6500    0.0000 C   0  0  0  0  0  0  0  0  0  0  0  0
    2.8579   -2.4750    0.0000 C   0  0  0  0  0  0  0  0  0  0  0  0
    2.1434   -2.8875    0.0000 C   0  0  0  0  0  0  0  0  0  0  0  0
    2.1434   -3.7125    0.0000 C   0  0  0  0  0  0  0  0  0  0  0  0
    1.4289   -4.1250    0.0000 O   0  0  0  0  0  0  0  0  0  0  0  0
    2.8579   -4.1250    0.0000 O   0  0  0  0  0  0  0  0  0  0  0  0
    0.0000   -1.6500    0.0000 C   0  0  0  0  0  0  0  0  0  0  0  0
    0.7145   -1.2375    0.0000 F   0  0  0  0  0  0  0  0  0  0  0  0
  1  2  1  0  0  0  0
  2  3  4  0  0  0  0
  3  4  1  0  0  0  0
  4  5  4  0  0  0  0
  5  6  4  0  0  0  0
  6  7  4  0  0  0  0
  7  8  4  0  0  0  0
  8  9  1  0  0  0  0
  9 10  1  0  0  0  0
 10 11  1  0  0  0  0
 10 12  1  0  0  0  0
 10 13  1  0  0  0  0
  8 14  4  0  0  0  0
  4 14  4  0  0  0  0
  3 15  4  0  0  0  0
 15 16  4  0  0  0  0
 16 17  1  0  0  0  0
 16 18  4  0  0  0  0
 18 19  1  0  0  0  0
 19 20  1  0  0  0  0
 20 21  4  0  0  0  0
 21 22  4  0  0  0  0
 22 23  4  0  0  0  0
 23 24  4  0  0  0  0
 24 25  4  0  0  0  0
 20 25  4  0  0  0  0
 25 26  1  0  0  0  0
 26 27  2  0  0  0  0
 26 28  1  0  0  0  0
 18 29  4  0  0  0  0
  2 29  4  0  0  0  0
 29 30  1  0  0  0  0
M  END
> <IC50(uM)>
0.006

> <Outcome>
1.0

> <BindingDB ID>
246921; 51186834

> <BindingDB MonomerID>
119828

> <BindingDB Ligand Name>
US8691852, 56

> <Curation/DataSource>
US Patent; ChEMBL

> <Article DOI>
?; 10.1007/s00044-011-9837-4

> <PMID>
?

> <Patent Number>
US8691852; ?

> <Authors>
Castro Palomino Laria, JC; Erra Sola, M; Lozoya Toribio, ME; Navarro Romero, E; n/a

> <Link to Ligand in BindingDB>
http://www.bindingdb.org/bind/chemsearch/marvin/MolStructure.jsp?monomerid=119828

> <Link to Ligand-Target Pair in BindingDB>
http://www.bindingdb.org/jsp/dbsearch/PrimarySearch_ki.jsp?energyterm=kJ/mole&tag=r21&monomerid=119828&enzyme=Dihydroorotate+dehydrogenase&column=ki&startPg=0&Increment=50&submit=Search

> <PubChem CID>
24989029

> <PubChem SID>
220230622

$$$$

  Mrv2115 07222212352D          

 31 35  0  0  0  0            999 V2000
    0.8838   -2.1500    0.0000 C   0  0  0  0  0  0  0  0  0  0  0  0
    1.1387   -1.3654    0.0000 N   0  0  0  0  0  0  0  0  0  0  0  0
    0.6538   -0.6979    0.0000 N   0  0  0  0  0  0  0  0  0  0  0  0
    1.1387   -0.0305    0.0000 N   0  0  0  0  0  0  0  0  0  0  0  0
    1.9233   -0.2854    0.0000 C   0  0  0  0  0  0  0  0  0  0  0  0
    2.6378    0.1271    0.0000 C   0  0  0  0  0  0  0  0  0  0  0  0
    3.3523   -0.2854    0.0000 C   0  0  0  0  0  0  0  0  0  0  0  0
    4.0668    0.1271    0.0000 C   0  0  0  0  0  0  0  0  0  0  0  0
    4.0668    0.9521    0.0000 C   0  0  0  0  0  0  0  0  0  0  0  0
    4.7812    1.3646    0.0000 C   0  0  0  0  0  0  0  0  0  0  0  0
    5.4957    0.9521    0.0000 C   0  0  0  0  0  0  0  0  0  0  0  0
    6.2102    1.3646    0.0000 C   0  0  0  0  0  0  0  0  0  0  0  0
    6.2102    2.1896    0.0000 C   0  0  0  0  0  0  0  0  0  0  0  0
    6.9246    2.6021    0.0000 C   0  0  0  0  0  0  0  0  0  0  0  0
    7.6391    2.1896    0.0000 C   0  0  0  0  0  0  0  0  0  0  0  0
    7.6391    1.3646    0.0000 C   0  0  0  0  0  0  0  0  0  0  0  0
    8.3536    0.9521    0.0000 C   0  0  0  0  0  0  0  0  0  0  0  0
    8.3536    0.1271    0.0000 N   0  0  0  0  0  0  0  0  0  0  0  0
    9.0210   -0.3579    0.0000 C   0  0  0  0  0  0  0  0  0  0  0  0
    8.7661   -1.1425    0.0000 C   0  0  0  0  0  0  0  0  0  0  0  0
    7.9411   -1.1425    0.0000 C   0  0  0  0  0  0  0  0  0  0  0  0
    7.6861   -0.3579    0.0000 C   0  0  0  0  0  0  0  0  0  0  0  0
    6.9246    0.9521    0.0000 C   0  0  0  0  0  0  0  0  0  0  0  0
    5.4957    0.1271    0.0000 C   0  0  0  0  0  0  0  0  0  0  0  0
    4.7812   -0.2854    0.0000 C   0  0  0  0  0  0  0  0  0  0  0  0
    3.3523   -1.1104    0.0000 C   0  0  0  0  0  0  0  0  0  0  0  0
    2.6378   -1.5229    0.0000 C   0  0  0  0  0  0  0  0  0  0  0  0
    2.6378   -2.3479    0.0000 C   0  0  0  0  0  0  0  0  0  0  0  0
    1.9233   -2.7604    0.0000 O   0  0  0  0  0  0  0  0  0  0  0  0
    3.3523   -2.7604    0.0000 O   0  0  0  0  0  0  0  0  0  0  0  0
    1.9233   -1.1104    0.0000 C   0  0  0  0  0  0  0  0  0  0  0  0
  1  2  1  0  0  0  0
  2  3  4  0  0  0  0
  3  4  4  0  0  0  0
  4  5  4  0  0  0  0
  5  6  4  0  0  0  0
  6  7  4  0  0  0  0
  7  8  1  0  0  0  0
  8  9  4  0  0  0  0
  9 10  4  0  0  0  0
 10 11  4  0  0  0  0
 11 12  1  0  0  0  0
 12 13  4  0  0  0  0
 13 14  4  0  0  0  0
 14 15  4  0  0  0  0
 15 16  4  0  0  0  0
 16 17  1  0  0  0  0
 17 18  1  0  0  0  0
 18 19  1  0  0  0  0
 19 20  1  0  0  0  0
 20 21  1  0  0  0  0
 21 22  1  0  0  0  0
 18 22  1  0  0  0  0
 16 23  4  0  0  0  0
 12 23  4  0  0  0  0
 11 24  4  0  0  0  0
 24 25  4  0  0  0  0
  8 25  4  0  0  0  0
  7 26  4  0  0  0  0
 26 27  4  0  0  0  0
 27 28  1  0  0  0  0
 28 29  2  0  0  0  0
 28 30  1  0  0  0  0
 27 31  4  0  0  0  0
  5 31  4  0  0  0  0
  2 31  4  0  0  0  0
M  END
> <IC50(uM)>
1.0

> <Outcome>
1.0

> <BindingDB ID>
1100178

> <BindingDB MonomerID>
520637

> <BindingDB Ligand Name>
1-methyl-5-(3'-(pyrrolidin-1-ylmethyl)-[1,1'-biphenyl]-4-yl)-1H- benzo[d][1,2,3]triazole-7-carboxylic acid;::US11147801, Compound 17

> <Curation/DataSource>
US Patent

> <Article DOI>
?

> <PMID>
?

> <Patent Number>
US11147801

> <Authors>
Nellore, K; Hosahalli, S

> <Link to Ligand in BindingDB>
http://www.bindingdb.org/bind/chemsearch/marvin/MolStructure.jsp?monomerid=520637

> <Link to Ligand-Target Pair in BindingDB>
http://www.bindingdb.org/jsp/dbsearch/PrimarySearch_ki.jsp?energyterm=kJ/mole&tag=r21&monomerid=520637&enzyme=Dihydroorotate+dehydrogenase&column=ki&startPg=0&Increment=50&submit=Search

> <PubChem CID>
?

> <PubChem SID>
?

$$$$

  Mrv2115 07222212352D          

 36 40  0  0  0  0            999 V2000
   -5.3959   -2.8645    0.0000 C   0  0  0  0  0  0  0  0  0  0  0  0
   -5.6509   -2.0799    0.0000 C   0  0  0  0  0  0  0  0  0  0  0  0
   -6.4355   -1.8249    0.0000 N   0  0  0  0  0  0  0  0  0  0  0  0
   -6.4355   -0.9999    0.0000 N   0  0  0  0  0  0  0  0  0  0  0  0
   -7.1029   -0.5150    0.0000 C   0  0  0  0  0  0  0  0  0  0  0  0
   -5.6509   -0.7450    0.0000 C   0  0  0  0  0  0  0  0  0  0  0  0
   -5.1659   -1.4124    0.0000 C   0  0  0  0  0  0  0  0  0  0  0  0
   -4.3409   -1.4124    0.0000 N   0  0  0  0  0  0  0  0  0  0  0  0
   -3.9284   -0.6979    0.0000 C   0  0  0  0  0  0  0  0  0  0  0  0
   -4.3409    0.0165    0.0000 O   0  0  0  0  0  0  0  0  0  0  0  0
   -3.1034   -0.6979    0.0000 C   0  0  0  0  0  0  0  0  0  0  0  0
   -2.6909    0.0165    0.0000 C   0  0  0  0  0  0  0  0  0  0  0  0
   -1.8659    0.0165    0.0000 C   0  0  0  0  0  0  0  0  0  0  0  0
   -1.4534    0.7310    0.0000 F   0  0  0  0  0  0  0  0  0  0  0  0
   -1.4534   -0.6979    0.0000 C   0  0  0  0  0  0  0  0  0  0  0  0
   -0.6284   -0.6979    0.0000 N   0  0  0  0  0  0  0  0  0  0  0  0
   -0.1435   -1.3654    0.0000 N   0  0  0  0  0  0  0  0  0  0  0  0
    0.6411   -1.1104    0.0000 C   0  0  0  0  0  0  0  0  0  0  0  0
    0.6411   -0.2854    0.0000 N   0  0  0  0  0  0  0  0  0  0  0  0
   -0.1435   -0.0305    0.0000 C   0  0  0  0  0  0  0  0  0  0  0  0
   -0.3984    0.7541    0.0000 O   0  0  0  0  0  0  0  0  0  0  0  0
    1.3556    0.1271    0.0000 C   0  0  0  0  0  0  0  0  0  0  0  0
    2.0701   -0.2854    0.0000 C   0  0  0  0  0  0  0  0  0  0  0  0
    2.0701   -1.1104    0.0000 C   0  0  0  0  0  0  0  0  0  0  0  0
    1.3556   -1.5229    0.0000 C   0  0  0  0  0  0  0  0  0  0  0  0
   -1.8659   -1.4124    0.0000 C   0  0  0  0  0  0  0  0  0  0  0  0
   -2.6909   -1.4124    0.0000 C   0  0  0  0  0  0  0  0  0  0  0  0
   -3.1034   -2.1269    0.0000 O   0  0  0  0  0  0  0  0  0  0  0  0
   -2.6909   -2.8414    0.0000 C   0  0  0  0  0  0  0  0  0  0  0  0
   -1.8659   -2.8414    0.0000 C   0  0  0  0  0  0  0  0  0  0  0  0
   -3.1034   -3.5558    0.0000 C   0  0  0  0  0  0  0  0  0  0  0  0
   -2.6909   -4.2703    0.0000 C   0  0  0  0  0  0  0  0  0  0  0  0
   -3.1034   -4.9848    0.0000 C   0  0  0  0  0  0  0  0  0  0  0  0
   -3.9284   -4.9848    0.0000 C   0  0  0  0  0  0  0  0  0  0  0  0
   -4.3409   -4.2703    0.0000 C   0  0  0  0  0  0  0  0  0  0  0  0
   -3.9284   -3.5558    0.0000 C   0  0  0  0  0  0  0  0  0  0  0  0
  1  2  1  0  0  0  0
  2  3  4  0  0  0  0
  3  4  4  0  0  0  0
  4  5  1  0  0  0  0
  4  6  4  0  0  0  0
  6  7  4  0  0  0  0
  2  7  4  0  0  0  0
  7  8  1  0  0  0  0
  8  9  1  0  0  0  0
  9 10  2  0  0  0  0
  9 11  1  0  0  0  0
 11 12  4  0  0  0  0
 12 13  4  0  0  0  0
 13 14  1  0  0  0  0
 13 15  4  0  0  0  0
 15 16  1  0  0  0  0
 16 17  4  0  0  0  0
 17 18  4  0  0  0  0
 18 19  4  0  0  0  0
 19 20  4  0  0  0  0
 16 20  4  0  0  0  0
 20 21  2  0  0  0  0
 19 22  1  0  0  0  0
 22 23  1  0  0  0  0
 23 24  1  0  0  0  0
 24 25  1  0  0  0  0
 18 25  1  0  0  0  0
 15 26  4  0  0  0  0
 26 27  4  0  0  0  0
 11 27  4  0  0  0  0
 27 28  1  0  0  0  0
 28 29  1  0  0  0  0
 29 30  1  0  0  0  0
 29 31  1  0  0  0  0
 31 32  1  0  0  0  0
 32 33  1  0  0  0  0
 33 34  1  0  0  0  0
 34 35  1  0  0  0  0
 35 36  1  0  0  0  0
 31 36  1  0  0  0  0
M  END
> <IC50(uM)>
0.16

> <Outcome>
1.0

> <BindingDB ID>
1020566

> <BindingDB MonomerID>
490505

> <BindingDB Ligand Name>
2-[(1S)-1-cyclohexylethoxy]-N-(1,3-dimethyl-1H-pyrazol-4-yl)-5-fluoro-4-(3-oxo-5,6,7,8-tetrahydro[1,2,4]triazolo[4,3-a]pyridin-2(3H)-yl)benzamide::US10968216, Example 173

> <Curation/DataSource>
US Patent

> <Article DOI>
?

> <PMID>
?

> <Patent Number>
US10968216

> <Authors>
Gradl, SN; Nguyen, D; Eis, K; Gunther, J; Stellfeld, T; Janzer, A; Christian, S; Mueller, T; Sheikh, SE; Zhou, HJ; Zhao, C; Sykes, DB; Ferrara, SJ; Liu, K; Herbert, SA; Merz, C; Niehues, M; Nising, CF; Schafer, M; Zimmermann, K; Knablein, J; Thede, K; Faupel, T

> <Link to Ligand in BindingDB>
http://www.bindingdb.org/bind/chemsearch/marvin/MolStructure.jsp?monomerid=490505

> <Link to Ligand-Target Pair in BindingDB>
http://www.bindingdb.org/jsp/dbsearch/PrimarySearch_ki.jsp?energyterm=kJ/mole&tag=r21&monomerid=490505&enzyme=Dihydroorotate+dehydrogenase&column=ki&startPg=0&Increment=50&submit=Search

> <PubChem CID>
142335845

> <PubChem SID>
447117232

$$$$

  Mrv2115 07222212352D          

 26 28  0  0  0  0            999 V2000
    0.7145   -0.4125    0.0000 C   0  0  0  0  0  0  0  0  0  0  0  0
    0.7145   -1.2375    0.0000 C   0  0  0  0  0  0  0  0  0  0  0  0
    1.3819   -1.7224    0.0000 S   0  0  0  0  0  0  0  0  0  0  0  0
    1.1270   -2.5070    0.0000 C   0  0  0  0  0  0  0  0  0  0  0  0
    1.6119   -3.1745    0.0000 N   0  0  0  0  0  0  0  0  0  0  0  0
    1.2763   -3.9282    0.0000 C   0  0  0  0  0  0  0  0  0  0  0  0
    2.4324   -3.0882    0.0000 N   0  0  0  0  0  0  0  0  0  0  0  0
    2.7679   -2.3346    0.0000 C   0  0  0  0  0  0  0  0  0  0  0  0
    3.5884   -2.2483    0.0000 C   0  0  0  0  0  0  0  0  0  0  0  0
    3.9240   -1.4947    0.0000 C   0  0  0  0  0  0  0  0  0  0  0  0
    4.7445   -1.4084    0.0000 C   0  0  0  0  0  0  0  0  0  0  0  0
    5.2294   -2.0759    0.0000 C   0  0  0  0  0  0  0  0  0  0  0  0
    4.8938   -2.8295    0.0000 C   0  0  0  0  0  0  0  0  0  0  0  0
    4.0733   -2.9158    0.0000 C   0  0  0  0  0  0  0  0  0  0  0  0
    3.7378   -3.6695    0.0000 C   0  0  0  0  0  0  0  0  0  0  0  0
    2.9173   -3.7557    0.0000 O   0  0  0  0  0  0  0  0  0  0  0  0
    4.2227   -4.3369    0.0000 O   0  0  0  0  0  0  0  0  0  0  0  0
    0.3020   -2.5070    0.0000 N   0  0  0  0  0  0  0  0  0  0  0  0
    0.0470   -1.7224    0.0000 C   0  0  0  0  0  0  0  0  0  0  0  0
   -0.7376   -1.4675    0.0000 C   0  0  0  0  0  0  0  0  0  0  0  0
   -1.3507   -2.0195    0.0000 C   0  0  0  0  0  0  0  0  0  0  0  0
   -2.1353   -1.7646    0.0000 C   0  0  0  0  0  0  0  0  0  0  0  0
   -2.3068   -0.9576    0.0000 C   0  0  0  0  0  0  0  0  0  0  0  0
   -1.6937   -0.4056    0.0000 C   0  0  0  0  0  0  0  0  0  0  0  0
   -0.9091   -0.6605    0.0000 C   0  0  0  0  0  0  0  0  0  0  0  0
   -0.2960   -0.1085    0.0000 Cl  0  0  0  0  0  0  0  0  0  0  0  0
  1  2  1  0  0  0  0
  2  3  4  0  0  0  0
  3  4  4  0  0  0  0
  4  5  1  0  0  0  0
  5  6  1  0  0  0  0
  5  7  1  0  0  0  0
  7  8  2  0  0  0  0
  8  9  1  0  0  0  0
  9 10  4  0  0  0  0
 10 11  4  0  0  0  0
 11 12  4  0  0  0  0
 12 13  4  0  0  0  0
 13 14  4  0  0  0  0
  9 14  4  0  0  0  0
 14 15  1  0  0  0  0
 15 16  2  0  0  0  0
 15 17  1  0  0  0  0
  4 18  4  0  0  0  0
 18 19  4  0  0  0  0
  2 19  4  0  0  0  0
 19 20  1  0  0  0  0
 20 21  4  0  0  0  0
 21 22  4  0  0  0  0
 22 23  4  0  0  0  0
 23 24  4  0  0  0  0
 24 25  4  0  0  0  0
 20 25  4  0  0  0  0
 25 26  1  0  0  0  0
M  END
> <IC50(uM)>
0.0355

> <Outcome>
1.0

> <BindingDB ID>
1001122

> <BindingDB MonomerID>
482808

> <BindingDB Ligand Name>
US10919869, No.  13

> <Curation/DataSource>
US Patent

> <Article DOI>
?

> <PMID>
?

> <Patent Number>
US10919869

> <Authors>
Li, H; Xu, Y; Wang, R; Zhao, Z; Song, W; Xu, L

> <Link to Ligand in BindingDB>
http://www.bindingdb.org/bind/chemsearch/marvin/MolStructure.jsp?monomerid=482808

> <Link to Ligand-Target Pair in BindingDB>
http://www.bindingdb.org/jsp/dbsearch/PrimarySearch_ki.jsp?energyterm=kJ/mole&tag=r21&monomerid=482808&enzyme=Dihydroorotate+dehydrogenase&column=ki&startPg=0&Increment=50&submit=Search

> <PubChem CID>
132157988

> <PubChem SID>
443551949

$$$$

  Mrv2115 07222212352D          

 37 40  0  0  0  0            999 V2000
   -3.1034    2.1599    0.0000 C   0  0  0  0  0  0  0  0  0  0  0  0
   -2.6909    1.4455    0.0000 C   0  0  0  0  0  0  0  0  0  0  0  0
   -3.1034    0.7310    0.0000 O   0  0  0  0  0  0  0  0  0  0  0  0
   -2.6909    0.0165    0.0000 C   0  0  0  0  0  0  0  0  0  0  0  0
   -1.8659    0.0165    0.0000 C   0  0  0  0  0  0  0  0  0  0  0  0
   -1.4534   -0.6979    0.0000 C   0  0  0  0  0  0  0  0  0  0  0  0
   -0.6284   -0.6979    0.0000 N   0  0  0  0  0  0  0  0  0  0  0  0
   -0.1435   -1.3654    0.0000 N   0  0  0  0  0  0  0  0  0  0  0  0
    0.6411   -1.1104    0.0000 C   0  0  0  0  0  0  0  0  0  0  0  0
    0.6411   -0.2854    0.0000 N   0  0  0  0  0  0  0  0  0  0  0  0
   -0.1435   -0.0305    0.0000 C   0  0  0  0  0  0  0  0  0  0  0  0
   -0.3984    0.7541    0.0000 O   0  0  0  0  0  0  0  0  0  0  0  0
    1.3556    0.1271    0.0000 C   0  0  0  0  0  0  0  0  0  0  0  0
    2.0701   -0.2854    0.0000 C   0  0  0  0  0  0  0  0  0  0  0  0
    2.3522    0.4898    0.0000 C   0  0  0  0  0  0  0  0  0  0  0  0
    2.8825   -0.4287    0.0000 C   0  0  0  0  0  0  0  0  0  0  0  0
    2.0701   -1.1104    0.0000 C   0  0  0  0  0  0  0  0  0  0  0  0
    1.3556   -1.5229    0.0000 O   0  0  0  0  0  0  0  0  0  0  0  0
   -1.8659   -1.4124    0.0000 C   0  0  0  0  0  0  0  0  0  0  0  0
   -1.4534   -2.1269    0.0000 F   0  0  0  0  0  0  0  0  0  0  0  0
   -2.6909   -1.4124    0.0000 C   0  0  0  0  0  0  0  0  0  0  0  0
   -3.1034   -0.6979    0.0000 C   0  0  0  0  0  0  0  0  0  0  0  0
   -3.9284   -0.6979    0.0000 C   0  0  0  0  0  0  0  0  0  0  0  0
   -4.3409    0.0165    0.0000 O   0  0  0  0  0  0  0  0  0  0  0  0
   -4.3409   -1.4124    0.0000 N   0  0  0  0  0  0  0  0  0  0  0  0
   -5.1659   -1.4124    0.0000 C   0  0  0  0  0  0  0  0  0  0  0  0
   -5.5784   -2.1269    0.0000 C   0  0  0  0  0  0  0  0  0  0  0  0
   -5.1659   -2.8414    0.0000 F   0  0  0  0  0  0  0  0  0  0  0  0
   -6.4034   -2.1269    0.0000 C   0  0  0  0  0  0  0  0  0  0  0  0
   -6.8159   -1.4124    0.0000 C   0  0  0  0  0  0  0  0  0  0  0  0
   -6.4034   -0.6979    0.0000 C   0  0  0  0  0  0  0  0  0  0  0  0
   -5.5784   -0.6979    0.0000 C   0  0  0  0  0  0  0  0  0  0  0  0
   -5.1659    0.0165    0.0000 F   0  0  0  0  0  0  0  0  0  0  0  0
   -1.8659    1.4455    0.0000 C   0  0  0  0  0  0  0  0  0  0  0  0
   -1.8659    0.6205    0.0000 F   0  0  0  0  0  0  0  0  0  0  0  0
   -1.8659    2.2705    0.0000 F   0  0  0  0  0  0  0  0  0  0  0  0
   -1.0409    1.4455    0.0000 F   0  0  0  0  0  0  0  0  0  0  0  0
  1  2  1  0  0  0  0
  2  3  1  0  0  0  0
  3  4  1  0  0  0  0
  4  5  4  0  0  0  0
  5  6  4  0  0  0  0
  6  7  1  0  0  0  0
  7  8  4  0  0  0  0
  8  9  4  0  0  0  0
  9 10  4  0  0  0  0
 10 11  4  0  0  0  0
  7 11  4  0  0  0  0
 11 12  2  0  0  0  0
 10 13  1  0  0  0  0
 13 14  1  0  0  0  0
 14 15  1  0  0  0  0
 14 16  1  0  0  0  0
 14 17  1  0  0  0  0
 17 18  1  0  0  0  0
  9 18  1  0  0  0  0
  6 19  4  0  0  0  0
 19 20  1  0  0  0  0
 19 21  4  0  0  0  0
 21 22  4  0  0  0  0
  4 22  4  0  0  0  0
 22 23  1  0  0  0  0
 23 24  2  0  0  0  0
 23 25  1  0  0  0  0
 25 26  1  0  0  0  0
 26 27  4  0  0  0  0
 27 28  1  0  0  0  0
 27 29  4  0  0  0  0
 29 30  4  0  0  0  0
 30 31  4  0  0  0  0
 31 32  4  0  0  0  0
 26 32  4  0  0  0  0
 32 33  1  0  0  0  0
  2 34  1  0  0  0  0
 34 35  1  0  0  0  0
 34 36  1  0  0  0  0
 34 37  1  0  0  0  0
M  END
> <IC50(uM)>
30.0

> <Outcome>
0.0

> <BindingDB ID>
1020654

> <BindingDB MonomerID>
490583

> <BindingDB Ligand Name>
N-(2,6-difluorophenyl)-4-(6,6-dimethyl-3-oxo-6,7-dihydro-5H-[1,2,4]triazolo[3,4-b][1,3]oxazin-2(3H)-yl)-5-fluoro-2-{[(2S)-1,1,1-trifluoropropan-2-yl]oxy}benzamide::US10968216, Example 251

> <Curation/DataSource>
US Patent

> <Article DOI>
?

> <PMID>
?

> <Patent Number>
US10968216

> <Authors>
Gradl, SN; Nguyen, D; Eis, K; Gunther, J; Stellfeld, T; Janzer, A; Christian, S; Mueller, T; Sheikh, SE; Zhou, HJ; Zhao, C; Sykes, DB; Ferrara, SJ; Liu, K; Herbert, SA; Merz, C; Niehues, M; Nising, CF; Schafer, M; Zimmermann, K; Knablein, J; Thede, K; Faupel, T

> <Link to Ligand in BindingDB>
http://www.bindingdb.org/bind/chemsearch/marvin/MolStructure.jsp?monomerid=490583

> <Link to Ligand-Target Pair in BindingDB>
http://www.bindingdb.org/jsp/dbsearch/PrimarySearch_ki.jsp?energyterm=kJ/mole&tag=r21&monomerid=490583&enzyme=Dihydroorotate+dehydrogenase&column=ki&startPg=0&Increment=50&submit=Search

> <PubChem CID>
142335886

> <PubChem SID>
447117309

$$$$

  Mrv2115 07222212352D          

 22 25  0  0  0  0            999 V2000
    3.3523   -0.2854    0.0000 O   0  0  0  0  0  0  0  0  0  0  0  0
    3.3523   -1.1104    0.0000 C   0  0  0  0  0  0  0  0  0  0  0  0
    4.0668   -1.5229    0.0000 C   0  0  0  0  0  0  0  0  0  0  0  0
    4.7812   -1.1104    0.0000 C   0  0  0  0  0  0  0  0  0  0  0  0
    5.4957   -1.5229    0.0000 C   0  0  0  0  0  0  0  0  0  0  0  0
    5.4957   -2.3479    0.0000 C   0  0  0  0  0  0  0  0  0  0  0  0
    4.7812   -2.7604    0.0000 C   0  0  0  0  0  0  0  0  0  0  0  0
    4.0668   -2.3479    0.0000 C   0  0  0  0  0  0  0  0  0  0  0  0
    3.3523   -2.7604    0.0000 C   0  0  0  0  0  0  0  0  0  0  0  0
    3.3523   -3.5854    0.0000 O   0  0  0  0  0  0  0  0  0  0  0  0
    2.6378   -2.3479    0.0000 C   0  0  0  0  0  0  0  0  0  0  0  0
    2.6378   -1.5229    0.0000 C   0  0  0  0  0  0  0  0  0  0  0  0
    1.8532   -1.2680    0.0000 N   0  0  0  0  0  0  0  0  0  0  0  0
    1.3683   -1.9354    0.0000 N   0  0  0  0  0  0  0  0  0  0  0  0
    1.8532   -2.6029    0.0000 N   0  0  0  0  0  0  0  0  0  0  0  0
    1.5983   -3.3875    0.0000 C   0  0  0  0  0  0  0  0  0  0  0  0
    2.1503   -4.0006    0.0000 C   0  0  0  0  0  0  0  0  0  0  0  0
    1.8953   -4.7852    0.0000 C   0  0  0  0  0  0  0  0  0  0  0  0
    1.0884   -4.9567    0.0000 C   0  0  0  0  0  0  0  0  0  0  0  0
    0.5363   -4.3437    0.0000 C   0  0  0  0  0  0  0  0  0  0  0  0
   -0.2706   -4.5152    0.0000 O   0  0  0  0  0  0  0  0  0  0  0  0
    0.7913   -3.5590    0.0000 C   0  0  0  0  0  0  0  0  0  0  0  0
  1  2  2  0  0  0  0
  2  3  1  0  0  0  0
  3  4  4  0  0  0  0
  4  5  4  0  0  0  0
  5  6  4  0  0  0  0
  6  7  4  0  0  0  0
  7  8  4  0  0  0  0
  3  8  4  0  0  0  0
  8  9  1  0  0  0  0
  9 10  2  0  0  0  0
  9 11  1  0  0  0  0
 11 12  4  0  0  0  0
  2 12  1  0  0  0  0
 12 13  4  0  0  0  0
 13 14  4  0  0  0  0
 14 15  4  0  0  0  0
 11 15  4  0  0  0  0
 15 16  1  0  0  0  0
 16 17  4  0  0  0  0
 17 18  4  0  0  0  0
 18 19  4  0  0  0  0
 19 20  4  0  0  0  0
 20 21  1  0  0  0  0
 20 22  4  0  0  0  0
 16 22  4  0  0  0  0
M  END
> <IC50(uM)>
1.0

> <Outcome>
1.0

> <BindingDB ID>
51338163

> <BindingDB MonomerID>
50541637

> <BindingDB Ligand Name>
CHEMBL4647716

> <Curation/DataSource>
ChEMBL

> <Article DOI>
10.1021/acs.jmedchem.0c00512

> <PMID>
32496056

> <Patent Number>
?

> <Authors>
Zuo, Z; Liu, X; Qian, X; Zeng, T; Sang, N; Liu, H; Zhou, Y; Tao, L; Zhou, X; Su, N; Yu, Y; Chen, Q; Luo, Y; Zhao, Y

> <Link to Ligand in BindingDB>
http://www.bindingdb.org/bind/chemsearch/marvin/MolStructure.jsp?monomerid=50541637

> <Link to Ligand-Target Pair in BindingDB>
http://www.bindingdb.org/jsp/dbsearch/PrimarySearch_ki.jsp?energyterm=kJ/mole&tag=r21&monomerid=50541637&enzyme=Dihydroorotate+dehydrogenase&column=ki&startPg=0&Increment=50&submit=Search

> <PubChem CID>
156020489

> <PubChem SID>
442143200

$$$$

  Mrv2115 07222212352D          

 29 32  0  0  0  0            999 V2000
    2.1665    6.5451    0.0000 C   0  0  0  0  0  0  0  0  0  0  0  0
    1.3819    6.8001    0.0000 C   0  0  0  0  0  0  0  0  0  0  0  0
    1.1270    7.5847    0.0000 C   0  0  0  0  0  0  0  0  0  0  0  0
    1.6119    8.2521    0.0000 O   0  0  0  0  0  0  0  0  0  0  0  0
    1.2763    9.0058    0.0000 C   0  0  0  0  0  0  0  0  0  0  0  0
    0.4559    9.0920    0.0000 C   0  0  0  0  0  0  0  0  0  0  0  0
   -0.2116    8.6071    0.0000 F   0  0  0  0  0  0  0  0  0  0  0  0
    0.1203    9.8457    0.0000 C   0  0  0  0  0  0  0  0  0  0  0  0
    0.6052   10.5131    0.0000 C   0  0  0  0  0  0  0  0  0  0  0  0
    1.4257   10.4269    0.0000 C   0  0  0  0  0  0  0  0  0  0  0  0
    1.7613    9.6732    0.0000 C   0  0  0  0  0  0  0  0  0  0  0  0
    2.5817    9.5870    0.0000 F   0  0  0  0  0  0  0  0  0  0  0  0
    0.3020    7.5847    0.0000 C   0  0  0  0  0  0  0  0  0  0  0  0
   -0.1830    8.2521    0.0000 O   0  0  0  0  0  0  0  0  0  0  0  0
   -1.0034    8.1659    0.0000 C   0  0  0  0  0  0  0  0  0  0  0  0
   -1.3390    7.4122    0.0000 C   0  0  0  0  0  0  0  0  0  0  0  0
   -1.4884    8.8333    0.0000 C   0  0  0  0  0  0  0  0  0  0  0  0
    0.0470    6.8001    0.0000 N   0  0  0  0  0  0  0  0  0  0  0  0
    0.7145    6.3151    0.0000 N   0  0  0  0  0  0  0  0  0  0  0  0
    0.7145    5.4901    0.0000 C   0  0  0  0  0  0  0  0  0  0  0  0
    1.4289    5.0776    0.0000 N   0  0  0  0  0  0  0  0  0  0  0  0
    1.4289    4.2526    0.0000 C   0  0  0  0  0  0  0  0  0  0  0  0
    0.7145    3.8401    0.0000 C   0  0  0  0  0  0  0  0  0  0  0  0
    0.7145    3.0151    0.0000 C   0  0  0  0  0  0  0  0  0  0  0  0
    1.1270    2.3007    0.0000 C   0  0  0  0  0  0  0  0  0  0  0  0
    0.3020    2.3007    0.0000 C   0  0  0  0  0  0  0  0  0  0  0  0
    0.0000    4.2526    0.0000 C   0  0  0  0  0  0  0  0  0  0  0  0
    0.0000    5.0776    0.0000 C   0  0  0  0  0  0  0  0  0  0  0  0
   -0.7145    5.4901    0.0000 F   0  0  0  0  0  0  0  0  0  0  0  0
  1  2  1  0  0  0  0
  2  3  4  0  0  0  0
  3  4  1  0  0  0  0
  4  5  1  0  0  0  0
  5  6  4  0  0  0  0
  6  7  1  0  0  0  0
  6  8  4  0  0  0  0
  8  9  4  0  0  0  0
  9 10  4  0  0  0  0
 10 11  4  0  0  0  0
  5 11  4  0  0  0  0
 11 12  1  0  0  0  0
  3 13  4  0  0  0  0
 13 14  1  0  0  0  0
 14 15  1  0  0  0  0
 15 16  1  0  0  0  0
 15 17  1  0  0  0  0
 13 18  4  0  0  0  0
 18 19  4  0  0  0  0
  2 19  4  0  0  0  0
 19 20  1  0  0  0  0
 20 21  4  0  0  0  0
 21 22  4  0  0  0  0
 22 23  4  0  0  0  0
 23 24  1  0  0  0  0
 24 25  1  0  0  0  0
 25 26  1  0  0  0  0
 24 26  1  0  0  0  0
 23 27  4  0  0  0  0
 27 28  4  0  0  0  0
 20 28  4  0  0  0  0
 28 29  1  0  0  0  0
M  END
> <IC50(uM)>
0.025

> <Outcome>
1.0

> <BindingDB ID>
50355110

> <BindingDB MonomerID>
50095120

> <BindingDB Ligand Name>
CHEMBL3589752

> <Curation/DataSource>
ChEMBL

> <Article DOI>
10.1021/acs.jmedchem.5b00606

> <PMID>
26079043

> <Patent Number>
?

> <Authors>
Lucas-Hourani, M; Munier-Lehmann, H; El Mazouni, F; Malmquist, NA; Harpon, J; Coutant, EP; Guillou, S; Helynck, O; Noel, A; Scherf, A; Phillips, MA; Tangy, F; Vidalain, PO; Janin, YL

> <Link to Ligand in BindingDB>
http://www.bindingdb.org/bind/chemsearch/marvin/MolStructure.jsp?monomerid=50095120

> <Link to Ligand-Target Pair in BindingDB>
http://www.bindingdb.org/jsp/dbsearch/PrimarySearch_ki.jsp?energyterm=kJ/mole&tag=r21&monomerid=50095120&enzyme=Dihydroorotate+dehydrogenase&column=ki&startPg=0&Increment=50&submit=Search

> <PubChem CID>
118430456

> <PubChem SID>
318473606

$$$$

  Mrv2115 07222212352D          

 21 23  0  0  0  0            999 V2000
   -0.2934    4.1250    0.0000 F   0  0  0  0  0  0  0  0  0  0  0  0
    0.4210    3.7125    0.0000 C   0  0  0  0  0  0  0  0  0  0  0  0
    0.0085    2.9980    0.0000 F   0  0  0  0  0  0  0  0  0  0  0  0
    0.8335    4.4270    0.0000 F   0  0  0  0  0  0  0  0  0  0  0  0
    1.1355    3.3000    0.0000 C   0  0  0  0  0  0  0  0  0  0  0  0
    1.8500    3.7125    0.0000 C   0  0  0  0  0  0  0  0  0  0  0  0
    2.5645    3.3000    0.0000 C   0  0  0  0  0  0  0  0  0  0  0  0
    2.5645    2.4750    0.0000 C   0  0  0  0  0  0  0  0  0  0  0  0
    3.2789    2.0625    0.0000 N   0  0  0  0  0  0  0  0  0  0  0  0
    3.2789    1.2375    0.0000 C   0  0  0  0  0  0  0  0  0  0  0  0
    3.9934    0.8250    0.0000 C   0  0  0  0  0  0  0  0  0  0  0  0
    3.9934    0.0000    0.0000 C   0  0  0  0  0  0  0  0  0  0  0  0
    4.7079   -0.4125    0.0000 Cl  0  0  0  0  0  0  0  0  0  0  0  0
    3.2789   -0.4125    0.0000 N   0  0  0  0  0  0  0  0  0  0  0  0
    2.5645    0.0000    0.0000 C   0  0  0  0  0  0  0  0  0  0  0  0
    1.7798   -0.2549    0.0000 N   0  0  0  0  0  0  0  0  0  0  0  0
    1.2949    0.4125    0.0000 C   0  0  0  0  0  0  0  0  0  0  0  0
    1.7798    1.0799    0.0000 N   0  0  0  0  0  0  0  0  0  0  0  0
    2.5645    0.8250    0.0000 N   0  0  0  0  0  0  0  0  0  0  0  0
    1.8500    2.0625    0.0000 C   0  0  0  0  0  0  0  0  0  0  0  0
    1.1355    2.4750    0.0000 C   0  0  0  0  0  0  0  0  0  0  0  0
  1  2  1  0  0  0  0
  2  3  1  0  0  0  0
  2  4  1  0  0  0  0
  2  5  1  0  0  0  0
  5  6  4  0  0  0  0
  6  7  4  0  0  0  0
  7  8  4  0  0  0  0
  8  9  1  0  0  0  0
  9 10  1  0  0  0  0
 10 11  4  0  0  0  0
 11 12  4  0  0  0  0
 12 13  1  0  0  0  0
 12 14  4  0  0  0  0
 14 15  4  0  0  0  0
 15 16  4  0  0  0  0
 16 17  4  0  0  0  0
 17 18  4  0  0  0  0
 18 19  4  0  0  0  0
 10 19  4  0  0  0  0
 15 19  4  0  0  0  0
  8 20  4  0  0  0  0
 20 21  4  0  0  0  0
  5 21  4  0  0  0  0
M  END
> <IC50(uM)>
100.0

> <Outcome>
0.0

> <BindingDB ID>
50643198

> <BindingDB MonomerID>
50345436

> <BindingDB Ligand Name>
5-Chloro-N-(4-trifluoromethyl)phenyl)-[1,2,4]triazolo[1,5-a]pyrimidin-7-amine::CHEMBL1784713

> <Curation/DataSource>
ChEMBL

> <Article DOI>
10.1021/jm200265b

> <PMID>
21517059

> <Patent Number>
?

> <Authors>
Gujjar, R; El Mazouni, F; White, KL; White, J; Creason, S; Shackleford, DM; Deng, X; Charman, WN; Bathurst, I; Burrows, J; Floyd, DM; Matthews, D; Buckner, FS; Charman, SA; Phillips, MA; Rathod, PK

> <Link to Ligand in BindingDB>
http://www.bindingdb.org/bind/chemsearch/marvin/MolStructure.jsp?monomerid=50345436

> <Link to Ligand-Target Pair in BindingDB>
http://www.bindingdb.org/jsp/dbsearch/PrimarySearch_ki.jsp?energyterm=kJ/mole&tag=r21&monomerid=50345436&enzyme=Dihydroorotate+dehydrogenase&column=ki&startPg=0&Increment=50&submit=Search

> <PubChem CID>
54585315

> <PubChem SID>
131348372

$$$$

  Mrv2115 07222212352D          

 31 34  0  0  0  0            999 V2000
   -1.5356   -2.5366    0.0000 C   0  0  0  0  0  0  0  0  0  0  0  0
   -1.5356   -1.7116    0.0000 C   0  0  0  0  0  0  0  0  0  0  0  0
   -0.8212   -1.2991    0.0000 C   0  0  0  0  0  0  0  0  0  0  0  0
   -0.8212   -0.4741    0.0000 C   0  0  0  0  0  0  0  0  0  0  0  0
   -1.5356   -0.0616    0.0000 C   0  0  0  0  0  0  0  0  0  0  0  0
   -1.5356    0.7634    0.0000 N   0  0  0  0  0  0  0  0  0  0  0  0
   -0.8212    1.1759    0.0000 C   0  0  0  0  0  0  0  0  0  0  0  0
   -0.8212    2.0009    0.0000 C   0  0  0  0  0  0  0  0  0  0  0  0
   -0.1067    2.4134    0.0000 N   0  0  0  0  0  0  0  0  0  0  0  0
    0.6078    2.0009    0.0000 C   0  0  0  0  0  0  0  0  0  0  0  0
    1.3222    2.4134    0.0000 C   0  0  0  0  0  0  0  0  0  0  0  0
    1.3222    3.2384    0.0000 C   0  0  0  0  0  0  0  0  0  0  0  0
    2.0367    3.6509    0.0000 C   0  0  0  0  0  0  0  0  0  0  0  0
    2.7512    3.2384    0.0000 C   0  0  0  0  0  0  0  0  0  0  0  0
    2.7512    2.4134    0.0000 C   0  0  0  0  0  0  0  0  0  0  0  0
    3.4656    2.0009    0.0000 C   0  0  0  0  0  0  0  0  0  0  0  0
    4.1801    2.4134    0.0000 O   0  0  0  0  0  0  0  0  0  0  0  0
    3.4656    1.1759    0.0000 N   0  0  0  0  0  0  0  0  0  0  0  0
    4.1331    0.6910    0.0000 C   0  0  0  0  0  0  0  0  0  0  0  0
    3.8781   -0.0937    0.0000 C   0  0  0  0  0  0  0  0  0  0  0  0
    3.0531   -0.0937    0.0000 C   0  0  0  0  0  0  0  0  0  0  0  0
    2.7982    0.6910    0.0000 C   0  0  0  0  0  0  0  0  0  0  0  0
    2.0367    2.0009    0.0000 C   0  0  0  0  0  0  0  0  0  0  0  0
    0.6078    1.1759    0.0000 C   0  0  0  0  0  0  0  0  0  0  0  0
    1.3222    0.7634    0.0000 C   0  0  0  0  0  0  0  0  0  0  0  0
   -0.1067    0.7634    0.0000 C   0  0  0  0  0  0  0  0  0  0  0  0
   -2.2501   -0.4741    0.0000 C   0  0  0  0  0  0  0  0  0  0  0  0
   -2.9646   -0.0616    0.0000 C   0  0  0  0  0  0  0  0  0  0  0  0
   -3.6791   -0.4741    0.0000 O   0  0  0  0  0  0  0  0  0  0  0  0
   -2.9646    0.7634    0.0000 O   0  0  0  0  0  0  0  0  0  0  0  0
   -2.2501   -1.2991    0.0000 C   0  0  0  0  0  0  0  0  0  0  0  0
  1  2  1  0  0  0  0
  2  3  4  0  0  0  0
  3  4  4  0  0  0  0
  4  5  4  0  0  0  0
  5  6  1  0  0  0  0
  6  7  1  0  0  0  0
  7  8  4  0  0  0  0
  8  9  4  0  0  0  0
  9 10  4  0  0  0  0
 10 11  1  0  0  0  0
 11 12  4  0  0  0  0
 12 13  4  0  0  0  0
 13 14  4  0  0  0  0
 14 15  4  0  0  0  0
 15 16  1  0  0  0  0
 16 17  2  0  0  0  0
 16 18  1  0  0  0  0
 18 19  1  0  0  0  0
 19 20  1  0  0  0  0
 20 21  1  0  0  0  0
 21 22  1  0  0  0  0
 18 22  1  0  0  0  0
 15 23  4  0  0  0  0
 11 23  4  0  0  0  0
 10 24  4  0  0  0  0
 24 25  1  0  0  0  0
 24 26  4  0  0  0  0
  7 26  4  0  0  0  0
  5 27  4  0  0  0  0
 27 28  1  0  0  0  0
 28 29  2  0  0  0  0
 28 30  1  0  0  0  0
 27 31  4  0  0  0  0
  2 31  4  0  0  0  0
M  END
> <IC50(uM)>
0.009

> <Outcome>
1.0

> <BindingDB ID>
220020

> <BindingDB MonomerID>
102490

> <BindingDB Ligand Name>
US8536165, 94

> <Curation/DataSource>
US Patent

> <Article DOI>
?

> <PMID>
?

> <Patent Number>
US8536165

> <Authors>
Castro Palomino Laria, JC; Terricabras Belart, E; Erra Sola, M; Navarro Romero, E; Fonquerna Pou, S; Cardus Figueras, A; Lozoya Toribio, ME

> <Link to Ligand in BindingDB>
http://www.bindingdb.org/bind/chemsearch/marvin/MolStructure.jsp?monomerid=102490

> <Link to Ligand-Target Pair in BindingDB>
http://www.bindingdb.org/jsp/dbsearch/PrimarySearch_ki.jsp?energyterm=kJ/mole&tag=r21&monomerid=102490&enzyme=Dihydroorotate+dehydrogenase&column=ki&startPg=0&Increment=50&submit=Search

> <PubChem CID>
56968695

> <PubChem SID>
172097781

$$$$

  Mrv2115 07222212352D          

 25 28  0  0  0  0            999 V2000
   -1.7575    0.3126    0.0000 C   0  0  0  0  0  0  0  0  0  0  0  0
   -1.2054    0.9256    0.0000 C   0  0  0  0  0  0  0  0  0  0  0  0
   -1.4604    1.7103    0.0000 C   0  0  0  0  0  0  0  0  0  0  0  0
   -0.9083    2.3234    0.0000 C   0  0  0  0  0  0  0  0  0  0  0  0
   -0.1014    2.1518    0.0000 C   0  0  0  0  0  0  0  0  0  0  0  0
    0.1536    1.3672    0.0000 C   0  0  0  0  0  0  0  0  0  0  0  0
   -0.3984    0.7541    0.0000 C   0  0  0  0  0  0  0  0  0  0  0  0
   -0.1435   -0.0305    0.0000 N   0  0  0  0  0  0  0  0  0  0  0  0
   -0.6284   -0.6979    0.0000 N   0  0  0  0  0  0  0  0  0  0  0  0
   -0.1435   -1.3654    0.0000 C   0  0  0  0  0  0  0  0  0  0  0  0
    0.6411   -1.1104    0.0000 C   0  0  0  0  0  0  0  0  0  0  0  0
    0.6411   -0.2854    0.0000 C   0  0  0  0  0  0  0  0  0  0  0  0
    1.3556    0.1271    0.0000 C   0  0  0  0  0  0  0  0  0  0  0  0
    2.0701   -0.2854    0.0000 C   0  0  0  0  0  0  0  0  0  0  0  0
    2.0701   -1.1104    0.0000 C   0  0  0  0  0  0  0  0  0  0  0  0
    1.3556   -1.5229    0.0000 C   0  0  0  0  0  0  0  0  0  0  0  0
    1.3556   -2.3479    0.0000 N   0  0  0  0  0  0  0  0  0  0  0  0
    2.0701   -2.7604    0.0000 C   0  0  0  0  0  0  0  0  0  0  0  0
    2.7845   -2.3479    0.0000 O   0  0  0  0  0  0  0  0  0  0  0  0
    2.0701   -3.5854    0.0000 C   0  0  0  0  0  0  0  0  0  0  0  0
    2.7375   -4.0704    0.0000 S   0  0  0  0  0  0  0  0  0  0  0  0
    2.4826   -4.8550    0.0000 C   0  0  0  0  0  0  0  0  0  0  0  0
    1.6576   -4.8550    0.0000 C   0  0  0  0  0  0  0  0  0  0  0  0
    1.4026   -4.0704    0.0000 C   0  0  0  0  0  0  0  0  0  0  0  0
    0.6180   -3.8154    0.0000 C   0  0  0  0  0  0  0  0  0  0  0  0
  1  2  1  0  0  0  0
  2  3  4  0  0  0  0
  3  4  4  0  0  0  0
  4  5  4  0  0  0  0
  5  6  4  0  0  0  0
  6  7  4  0  0  0  0
  2  7  4  0  0  0  0
  7  8  1  0  0  0  0
  8  9  4  0  0  0  0
  9 10  4  0  0  0  0
 10 11  4  0  0  0  0
 11 12  4  0  0  0  0
  8 12  4  0  0  0  0
 12 13  1  0  0  0  0
 13 14  1  0  0  0  0
 14 15  1  0  0  0  0
 15 16  1  0  0  0  0
 11 16  1  0  0  0  0
 16 17  1  0  0  0  0
 17 18  1  0  0  0  0
 18 19  2  0  0  0  0
 18 20  1  0  0  0  0
 20 21  4  0  0  0  0
 21 22  4  0  0  0  0
 22 23  4  0  0  0  0
 23 24  4  0  0  0  0
 20 24  4  0  0  0  0
 24 25  1  0  0  0  0
M  END
> <IC50(uM)>
0.136

> <Outcome>
1.0

> <BindingDB ID>
993087

> <BindingDB MonomerID>
477589

> <BindingDB Ligand Name>
3-methyl-N-[(4R)-1-(2-methylphenyl)-4,5,6,7-tetrahydro-1H-indazol-4-yl]thiophene-2-carboxamide::US10889564, Example 19

> <Curation/DataSource>
US Patent

> <Article DOI>
?

> <PMID>
?

> <Patent Number>
US10889564

> <Authors>
Lain, S; Drummond, C; Leeuwen, IV; Haraldsson, M; Johansson, L; Sandberg, L; Yngve, U

> <Link to Ligand in BindingDB>
http://www.bindingdb.org/bind/chemsearch/marvin/MolStructure.jsp?monomerid=477589

> <Link to Ligand-Target Pair in BindingDB>
http://www.bindingdb.org/jsp/dbsearch/PrimarySearch_ki.jsp?energyterm=kJ/mole&tag=r21&monomerid=477589&enzyme=Dihydroorotate+dehydrogenase&column=ki&startPg=0&Increment=50&submit=Search

> <PubChem CID>
129127252

> <PubChem SID>
442137206

$$$$

  Mrv2115 07222212352D          

 34 37  0  0  0  0            999 V2000
   -3.1034    2.1599    0.0000 C   0  0  0  0  0  0  0  0  0  0  0  0
   -2.6909    1.4455    0.0000 C   0  0  0  0  0  0  0  0  0  0  0  0
   -3.1034    0.7310    0.0000 O   0  0  0  0  0  0  0  0  0  0  0  0
   -2.6909    0.0165    0.0000 C   0  0  0  0  0  0  0  0  0  0  0  0
   -1.8659    0.0165    0.0000 C   0  0  0  0  0  0  0  0  0  0  0  0
   -1.4534   -0.6979    0.0000 C   0  0  0  0  0  0  0  0  0  0  0  0
   -0.6284   -0.6979    0.0000 N   0  0  0  0  0  0  0  0  0  0  0  0
   -0.1435   -1.3654    0.0000 N   0  0  0  0  0  0  0  0  0  0  0  0
    0.6411   -1.1104    0.0000 C   0  0  0  0  0  0  0  0  0  0  0  0
    0.6411   -0.2854    0.0000 N   0  0  0  0  0  0  0  0  0  0  0  0
   -0.1435   -0.0305    0.0000 C   0  0  0  0  0  0  0  0  0  0  0  0
   -0.3984    0.7541    0.0000 O   0  0  0  0  0  0  0  0  0  0  0  0
    1.3556    0.1271    0.0000 C   0  0  0  0  0  0  0  0  0  0  0  0
    2.0701   -0.2854    0.0000 C   0  0  0  0  0  0  0  0  0  0  0  0
    2.0701   -1.1104    0.0000 C   0  0  0  0  0  0  0  0  0  0  0  0
    1.3556   -1.5229    0.0000 C   0  0  0  0  0  0  0  0  0  0  0  0
   -1.8659   -1.4124    0.0000 C   0  0  0  0  0  0  0  0  0  0  0  0
   -1.4534   -2.1269    0.0000 F   0  0  0  0  0  0  0  0  0  0  0  0
   -2.6909   -1.4124    0.0000 C   0  0  0  0  0  0  0  0  0  0  0  0
   -3.1034   -0.6979    0.0000 C   0  0  0  0  0  0  0  0  0  0  0  0
   -3.9284   -0.6979    0.0000 C   0  0  0  0  0  0  0  0  0  0  0  0
   -4.3409    0.0165    0.0000 O   0  0  0  0  0  0  0  0  0  0  0  0
   -4.3409   -1.4124    0.0000 N   0  0  0  0  0  0  0  0  0  0  0  0
   -5.1659   -1.4124    0.0000 C   0  0  0  0  0  0  0  0  0  0  0  0
   -5.5784   -2.1269    0.0000 C   0  0  0  0  0  0  0  0  0  0  0  0
   -6.4034   -2.1269    0.0000 C   0  0  0  0  0  0  0  0  0  0  0  0
   -6.8159   -1.4124    0.0000 C   0  0  0  0  0  0  0  0  0  0  0  0
   -6.4034   -0.6979    0.0000 C   0  0  0  0  0  0  0  0  0  0  0  0
   -5.5784   -0.6979    0.0000 C   0  0  0  0  0  0  0  0  0  0  0  0
   -5.1659    0.0165    0.0000 F   0  0  0  0  0  0  0  0  0  0  0  0
   -1.8659    1.4455    0.0000 C   0  0  0  0  0  0  0  0  0  0  0  0
   -1.8659    0.6205    0.0000 F   0  0  0  0  0  0  0  0  0  0  0  0
   -1.8659    2.2705    0.0000 F   0  0  0  0  0  0  0  0  0  0  0  0
   -1.0409    1.4455    0.0000 F   0  0  0  0  0  0  0  0  0  0  0  0
  1  2  1  0  0  0  0
  2  3  1  0  0  0  0
  3  4  1  0  0  0  0
  4  5  4  0  0  0  0
  5  6  4  0  0  0  0
  6  7  1  0  0  0  0
  7  8  4  0  0  0  0
  8  9  4  0  0  0  0
  9 10  4  0  0  0  0
 10 11  4  0  0  0  0
  7 11  4  0  0  0  0
 11 12  2  0  0  0  0
 10 13  1  0  0  0  0
 13 14  1  0  0  0  0
 14 15  1  0  0  0  0
 15 16  1  0  0  0  0
  9 16  1  0  0  0  0
  6 17  4  0  0  0  0
 17 18  1  0  0  0  0
 17 19  4  0  0  0  0
 19 20  4  0  0  0  0
  4 20  4  0  0  0  0
 20 21  1  0  0  0  0
 21 22  2  0  0  0  0
 21 23  1  0  0  0  0
 23 24  1  0  0  0  0
 24 25  4  0  0  0  0
 25 26  4  0  0  0  0
 26 27  4  0  0  0  0
 27 28  4  0  0  0  0
 28 29  4  0  0  0  0
 24 29  4  0  0  0  0
 29 30  1  0  0  0  0
  2 31  1  0  0  0  0
 31 32  1  0  0  0  0
 31 33  1  0  0  0  0
 31 34  1  0  0  0  0
M  END
> <IC50(uM)>
0.5733333333333333

> <Outcome>
1.0

> <BindingDB ID>
1020456; 1020455; 1020663

> <BindingDB MonomerID>
490404; 490592

> <BindingDB Ligand Name>
5-fluoro-N-(2-fluorophenyl)-4-(3-oxo-5,6,7,8-tetrahydro[1,2,4]triazolo[4,3-a]pyridin-2(3H)-yl)-2-{[(2S)-1,1,1-trifluoropropan-2-yl]oxy}benzamide::US10968216, Example 72; 5-fluoro-N-(2-fluorophenyl)-4-(3-oxo-5,6,7,8-tetrahydro[1,2,4]triazolo[4,3-a]pyridin-2(3H)-yl)-2-{[(2R)-1,1,1-trifluoropropan-2-yl]oxy}benzamide::US10968216, Example 260

> <Curation/DataSource>
US Patent

> <Article DOI>
?

> <PMID>
?

> <Patent Number>
US10968216

> <Authors>
Gradl, SN; Nguyen, D; Eis, K; Gunther, J; Stellfeld, T; Janzer, A; Christian, S; Mueller, T; Sheikh, SE; Zhou, HJ; Zhao, C; Sykes, DB; Ferrara, SJ; Liu, K; Herbert, SA; Merz, C; Niehues, M; Nising, CF; Schafer, M; Zimmermann, K; Knablein, J; Thede, K; Faupel, T

> <Link to Ligand in BindingDB>
http://www.bindingdb.org/bind/chemsearch/marvin/MolStructure.jsp?monomerid=490404; http://www.bindingdb.org/bind/chemsearch/marvin/MolStructure.jsp?monomerid=490592

> <Link to Ligand-Target Pair in BindingDB>
http://www.bindingdb.org/jsp/dbsearch/PrimarySearch_ki.jsp?energyterm=kJ/mole&tag=r21&monomerid=490404&enzyme=Dihydroorotate+dehydrogenase&column=ki&startPg=0&Increment=50&submit=Search; http://www.bindingdb.org/jsp/dbsearch/PrimarySearch_ki.jsp?energyterm=kJ/mole&tag=r21&monomerid=490592&enzyme=Dihydroorotate+dehydrogenase&column=ki&startPg=0&Increment=50&submit=Search

> <PubChem CID>
134474308; 134474523

> <PubChem SID>
447117131; 447117318

$$$$

  Mrv2115 07222212352D          

 23 26  0  0  0  0            999 V2000
    6.5733   -2.3388    0.0000 N   0  0  0  0  0  0  0  0  0  0  0  0
    5.7663   -2.1672    0.0000 C   0  0  0  0  0  0  0  0  0  0  0  0
    4.9594   -1.9957    0.0000 C   0  0  0  0  0  0  0  0  0  0  0  0
    4.4073   -2.6088    0.0000 C   0  0  0  0  0  0  0  0  0  0  0  0
    3.6004   -2.4373    0.0000 C   0  0  0  0  0  0  0  0  0  0  0  0
    3.3454   -1.6527    0.0000 C   0  0  0  0  0  0  0  0  0  0  0  0
    3.8974   -1.0396    0.0000 C   0  0  0  0  0  0  0  0  0  0  0  0
    3.6425   -0.2549    0.0000 N   0  0  0  0  0  0  0  0  0  0  0  0
    4.1274    0.4125    0.0000 N   0  0  0  0  0  0  0  0  0  0  0  0
    3.6425    1.0799    0.0000 N   0  0  0  0  0  0  0  0  0  0  0  0
    2.8579    0.8250    0.0000 C   0  0  0  0  0  0  0  0  0  0  0  0
    2.8579    0.0000    0.0000 C   0  0  0  0  0  0  0  0  0  0  0  0
    2.1434   -0.4125    0.0000 C   0  0  0  0  0  0  0  0  0  0  0  0
    2.1434   -1.2375    0.0000 O   0  0  0  0  0  0  0  0  0  0  0  0
    1.4289   -0.0000    0.0000 C   0  0  0  0  0  0  0  0  0  0  0  0
    0.7145   -0.4125    0.0000 C   0  0  0  0  0  0  0  0  0  0  0  0
   -0.0000    0.0000    0.0000 C   0  0  0  0  0  0  0  0  0  0  0  0
    0.0000    0.8250    0.0000 C   0  0  0  0  0  0  0  0  0  0  0  0
    0.7145    1.2375    0.0000 C   0  0  0  0  0  0  0  0  0  0  0  0
    1.4289    0.8250    0.0000 C   0  0  0  0  0  0  0  0  0  0  0  0
    2.1434    1.2375    0.0000 C   0  0  0  0  0  0  0  0  0  0  0  0
    2.1434    2.0625    0.0000 O   0  0  0  0  0  0  0  0  0  0  0  0
    4.7044   -1.2111    0.0000 C   0  0  0  0  0  0  0  0  0  0  0  0
  1  2  3  0  0  0  0
  2  3  1  0  0  0  0
  3  4  4  0  0  0  0
  4  5  4  0  0  0  0
  5  6  4  0  0  0  0
  6  7  4  0  0  0  0
  7  8  1  0  0  0  0
  8  9  4  0  0  0  0
  9 10  4  0  0  0  0
 10 11  4  0  0  0  0
 11 12  4  0  0  0  0
  8 12  4  0  0  0  0
 12 13  1  0  0  0  0
 13 14  2  0  0  0  0
 13 15  1  0  0  0  0
 15 16  4  0  0  0  0
 16 17  4  0  0  0  0
 17 18  4  0  0  0  0
 18 19  4  0  0  0  0
 19 20  4  0  0  0  0
 15 20  4  0  0  0  0
 20 21  1  0  0  0  0
 11 21  1  0  0  0  0
 21 22  2  0  0  0  0
  7 23  4  0  0  0  0
  3 23  4  0  0  0  0
M  END
> <IC50(uM)>
1.0

> <Outcome>
1.0

> <BindingDB ID>
51338162

> <BindingDB MonomerID>
50541636

> <BindingDB Ligand Name>
CHEMBL4648153

> <Curation/DataSource>
ChEMBL

> <Article DOI>
10.1021/acs.jmedchem.0c00512

> <PMID>
32496056

> <Patent Number>
?

> <Authors>
Zuo, Z; Liu, X; Qian, X; Zeng, T; Sang, N; Liu, H; Zhou, Y; Tao, L; Zhou, X; Su, N; Yu, Y; Chen, Q; Luo, Y; Zhao, Y

> <Link to Ligand in BindingDB>
http://www.bindingdb.org/bind/chemsearch/marvin/MolStructure.jsp?monomerid=50541636

> <Link to Ligand-Target Pair in BindingDB>
http://www.bindingdb.org/jsp/dbsearch/PrimarySearch_ki.jsp?energyterm=kJ/mole&tag=r21&monomerid=50541636&enzyme=Dihydroorotate+dehydrogenase&column=ki&startPg=0&Increment=50&submit=Search

> <PubChem CID>
156021176

> <PubChem SID>
442143199

$$$$

  Mrv2115 07222212352D          

 28 30  0  0  0  0            999 V2000
    2.1434   -2.8875    0.0000 C   0  0  0  0  0  0  0  0  0  0  0  0
    2.1434   -3.7125    0.0000 C   0  0  0  0  0  0  0  0  0  0  0  0
    1.4289   -4.1250    0.0000 C   0  0  0  0  0  0  0  0  0  0  0  0
    1.4289   -4.9500    0.0000 C   0  0  0  0  0  0  0  0  0  0  0  0
    2.1434   -5.3625    0.0000 C   0  0  0  0  0  0  0  0  0  0  0  0
    2.1434   -6.1875    0.0000 N   0  0  0  0  0  0  0  0  0  0  0  0
    1.4289   -6.6000    0.0000 C   0  0  0  0  0  0  0  0  0  0  0  0
    1.4289   -7.4250    0.0000 C   0  0  0  0  0  0  0  0  0  0  0  0
    0.7145   -7.8375    0.0000 N   0  0  0  0  0  0  0  0  0  0  0  0
    0.0000   -7.4250    0.0000 C   0  0  0  0  0  0  0  0  0  0  0  0
   -0.7145   -7.8375    0.0000 C   0  0  0  0  0  0  0  0  0  0  0  0
   -0.7145   -8.6625    0.0000 C   0  0  0  0  0  0  0  0  0  0  0  0
   -1.4289   -9.0750    0.0000 C   0  0  0  0  0  0  0  0  0  0  0  0
   -2.1434   -8.6625    0.0000 C   0  0  0  0  0  0  0  0  0  0  0  0
   -2.1434   -7.8375    0.0000 C   0  0  0  0  0  0  0  0  0  0  0  0
   -2.8579   -7.4250    0.0000 O   0  0  0  0  0  0  0  0  0  0  0  0
   -2.8579   -6.6000    0.0000 C   0  0  0  0  0  0  0  0  0  0  0  0
   -3.5724   -6.1875    0.0000 C   0  0  0  0  0  0  0  0  0  0  0  0
   -2.1434   -6.1875    0.0000 C   0  0  0  0  0  0  0  0  0  0  0  0
   -1.4289   -7.4250    0.0000 C   0  0  0  0  0  0  0  0  0  0  0  0
    0.0000   -6.6000    0.0000 C   0  0  0  0  0  0  0  0  0  0  0  0
   -0.7145   -6.1875    0.0000 C   0  0  0  0  0  0  0  0  0  0  0  0
    0.7145   -6.1875    0.0000 C   0  0  0  0  0  0  0  0  0  0  0  0
    2.8579   -4.9500    0.0000 C   0  0  0  0  0  0  0  0  0  0  0  0
    3.5724   -5.3625    0.0000 C   0  0  0  0  0  0  0  0  0  0  0  0
    4.2868   -4.9500    0.0000 O   0  0  0  0  0  0  0  0  0  0  0  0
    3.5724   -6.1875    0.0000 O   0  0  0  0  0  0  0  0  0  0  0  0
    2.8579   -4.1250    0.0000 C   0  0  0  0  0  0  0  0  0  0  0  0
  1  2  1  0  0  0  0
  2  3  4  0  0  0  0
  3  4  4  0  0  0  0
  4  5  4  0  0  0  0
  5  6  1  0  0  0  0
  6  7  1  0  0  0  0
  7  8  4  0  0  0  0
  8  9  4  0  0  0  0
  9 10  4  0  0  0  0
 10 11  1  0  0  0  0
 11 12  4  0  0  0  0
 12 13  4  0  0  0  0
 13 14  4  0  0  0  0
 14 15  4  0  0  0  0
 15 16  1  0  0  0  0
 16 17  1  0  0  0  0
 17 18  1  0  0  0  0
 17 19  1  0  0  0  0
 15 20  4  0  0  0  0
 11 20  4  0  0  0  0
 10 21  4  0  0  0  0
 21 22  1  0  0  0  0
 21 23  4  0  0  0  0
  7 23  4  0  0  0  0
  5 24  4  0  0  0  0
 24 25  1  0  0  0  0
 25 26  2  0  0  0  0
 25 27  1  0  0  0  0
 24 28  4  0  0  0  0
  2 28  4  0  0  0  0
M  END
> <IC50(uM)>
0.011

> <Outcome>
1.0

> <BindingDB ID>
219999

> <BindingDB MonomerID>
102469

> <BindingDB Ligand Name>
US8536165, 62

> <Curation/DataSource>
US Patent

> <Article DOI>
?

> <PMID>
?

> <Patent Number>
US8536165

> <Authors>
Castro Palomino Laria, JC; Terricabras Belart, E; Erra Sola, M; Navarro Romero, E; Fonquerna Pou, S; Cardus Figueras, A; Lozoya Toribio, ME

> <Link to Ligand in BindingDB>
http://www.bindingdb.org/bind/chemsearch/marvin/MolStructure.jsp?monomerid=102469

> <Link to Ligand-Target Pair in BindingDB>
http://www.bindingdb.org/jsp/dbsearch/PrimarySearch_ki.jsp?energyterm=kJ/mole&tag=r21&monomerid=102469&enzyme=Dihydroorotate+dehydrogenase&column=ki&startPg=0&Increment=50&submit=Search

> <PubChem CID>
46847795

> <PubChem SID>
172097760

$$$$

  Mrv2115 07222212352D          

 27 29  0  0  0  0            999 V2000
   -2.1434   -1.2375    0.0000 C   0  0  0  0  0  0  0  0  0  0  0  0
   -2.8579   -1.6500    0.0000 O   0  0  0  0  0  0  0  0  0  0  0  0
   -2.8579   -2.4750    0.0000 C   0  0  0  0  0  0  0  0  0  0  0  0
   -2.1434   -2.8875    0.0000 C   0  0  0  0  0  0  0  0  0  0  0  0
   -2.1434   -3.7125    0.0000 C   0  0  0  0  0  0  0  0  0  0  0  0
   -2.8579   -4.1250    0.0000 C   0  0  0  0  0  0  0  0  0  0  0  0
   -2.8579   -4.9500    0.0000 F   0  0  0  0  0  0  0  0  0  0  0  0
   -3.5724   -3.7125    0.0000 C   0  0  0  0  0  0  0  0  0  0  0  0
   -4.2868   -4.1250    0.0000 C   0  0  0  0  0  0  0  0  0  0  0  0
   -5.0013   -3.7125    0.0000 C   0  0  0  0  0  0  0  0  0  0  0  0
   -5.7158   -4.1250    0.0000 C   0  0  0  0  0  0  0  0  0  0  0  0
   -6.4302   -3.7125    0.0000 C   0  0  0  0  0  0  0  0  0  0  0  0
   -5.7158   -4.9500    0.0000 C   0  0  0  0  0  0  0  0  0  0  0  0
   -6.4302   -5.3625    0.0000 N   0  0  0  0  0  0  0  0  0  0  0  0
   -6.4302   -6.1875    0.0000 C   0  0  0  0  0  0  0  0  0  0  0  0
   -5.7158   -6.6000    0.0000 C   0  0  0  0  0  0  0  0  0  0  0  0
   -5.7158   -7.4250    0.0000 C   0  0  0  0  0  0  0  0  0  0  0  0
   -6.4302   -7.8375    0.0000 C   0  0  0  0  0  0  0  0  0  0  0  0
   -6.4302   -8.6625    0.0000 C   0  0  0  0  0  0  0  0  0  0  0  0
   -7.1447   -7.4250    0.0000 C   0  0  0  0  0  0  0  0  0  0  0  0
   -7.1447   -6.6000    0.0000 C   0  0  0  0  0  0  0  0  0  0  0  0
   -7.8592   -6.1875    0.0000 C   0  0  0  0  0  0  0  0  0  0  0  0
   -7.8592   -5.3625    0.0000 O   0  0  0  0  0  0  0  0  0  0  0  0
   -8.5737   -6.6000    0.0000 O   0  0  0  0  0  0  0  0  0  0  0  0
   -5.0013   -5.3625    0.0000 C   0  0  0  0  0  0  0  0  0  0  0  0
   -4.2868   -4.9500    0.0000 N   0  0  0  0  0  0  0  0  0  0  0  0
   -3.5724   -2.8875    0.0000 C   0  0  0  0  0  0  0  0  0  0  0  0
  1  2  1  0  0  0  0
  2  3  1  0  0  0  0
  3  4  4  0  0  0  0
  4  5  4  0  0  0  0
  5  6  4  0  0  0  0
  6  7  1  0  0  0  0
  6  8  4  0  0  0  0
  8  9  1  0  0  0  0
  9 10  4  0  0  0  0
 10 11  4  0  0  0  0
 11 12  1  0  0  0  0
 11 13  4  0  0  0  0
 13 14  1  0  0  0  0
 14 15  1  0  0  0  0
 15 16  4  0  0  0  0
 16 17  4  0  0  0  0
 17 18  4  0  0  0  0
 18 19  1  0  0  0  0
 18 20  4  0  0  0  0
 20 21  4  0  0  0  0
 15 21  4  0  0  0  0
 21 22  1  0  0  0  0
 22 23  2  0  0  0  0
 22 24  1  0  0  0  0
 13 25  4  0  0  0  0
 25 26  4  0  0  0  0
  9 26  4  0  0  0  0
  8 27  4  0  0  0  0
  3 27  4  0  0  0  0
M  END
> <IC50(uM)>
0.097

> <Outcome>
1.0

> <BindingDB ID>
220002

> <BindingDB MonomerID>
102472

> <BindingDB Ligand Name>
US8536165, 66

> <Curation/DataSource>
US Patent

> <Article DOI>
?

> <PMID>
?

> <Patent Number>
US8536165

> <Authors>
Castro Palomino Laria, JC; Terricabras Belart, E; Erra Sola, M; Navarro Romero, E; Fonquerna Pou, S; Cardus Figueras, A; Lozoya Toribio, ME

> <Link to Ligand in BindingDB>
http://www.bindingdb.org/bind/chemsearch/marvin/MolStructure.jsp?monomerid=102472

> <Link to Ligand-Target Pair in BindingDB>
http://www.bindingdb.org/jsp/dbsearch/PrimarySearch_ki.jsp?energyterm=kJ/mole&tag=r21&monomerid=102472&enzyme=Dihydroorotate+dehydrogenase&column=ki&startPg=0&Increment=50&submit=Search

> <PubChem CID>
25187850

> <PubChem SID>
172097763

$$$$

  Mrv2115 07222212352D          

 23 24  0  0  0  0            999 V2000
    0.0000   -4.9500    0.0000 C   0  0  0  0  0  0  0  0  0  0  0  0
    0.7145   -5.3625    0.0000 C   0  0  0  0  0  0  0  0  0  0  0  0
    0.7145   -6.1875    0.0000 O   0  0  0  0  0  0  0  0  0  0  0  0
    1.4289   -4.9500    0.0000 C   0  0  0  0  0  0  0  0  0  0  0  0
    1.4289   -4.1250    0.0000 C   0  0  0  0  0  0  0  0  0  0  0  0
    1.4289   -3.3000    0.0000 N   0  0  0  0  0  0  0  0  0  0  0  0
    2.1434   -5.3625    0.0000 C   0  0  0  0  0  0  0  0  0  0  0  0
    2.1434   -6.1875    0.0000 O   0  0  0  0  0  0  0  0  0  0  0  0
    2.8579   -4.9500    0.0000 N   0  0  0  0  0  0  0  0  0  0  0  0
    3.5724   -5.3625    0.0000 C   0  0  0  0  0  0  0  0  0  0  0  0
    4.2868   -4.9500    0.0000 C   0  0  0  0  0  0  0  0  0  0  0  0
    5.0013   -5.3625    0.0000 C   0  0  0  0  0  0  0  0  0  0  0  0
    5.0013   -6.1875    0.0000 C   0  0  0  0  0  0  0  0  0  0  0  0
    5.7158   -6.6000    0.0000 C   0  0  0  0  0  0  0  0  0  0  0  0
    6.4302   -6.1875    0.0000 C   0  0  0  0  0  0  0  0  0  0  0  0
    7.1447   -6.6000    0.0000 C   0  0  0  0  0  0  0  0  0  0  0  0
    7.1447   -7.4250    0.0000 C   0  0  0  0  0  0  0  0  0  0  0  0
    6.4302   -7.8375    0.0000 C   0  0  0  0  0  0  0  0  0  0  0  0
    6.4302   -8.6625    0.0000 Cl  0  0  0  0  0  0  0  0  0  0  0  0
    5.7158   -7.4250    0.0000 C   0  0  0  0  0  0  0  0  0  0  0  0
    5.0013   -7.8375    0.0000 Cl  0  0  0  0  0  0  0  0  0  0  0  0
    4.2868   -6.6000    0.0000 C   0  0  0  0  0  0  0  0  0  0  0  0
    3.5724   -6.1875    0.0000 C   0  0  0  0  0  0  0  0  0  0  0  0
  1  2  1  0  0  0  0
  2  3  2  0  0  0  0
  2  4  1  0  0  0  0
  4  5  1  0  0  0  0
  5  6  3  0  0  0  0
  4  7  1  0  0  0  0
  7  8  2  0  0  0  0
  7  9  1  0  0  0  0
  9 10  1  0  0  0  0
 10 11  4  0  0  0  0
 11 12  4  0  0  0  0
 12 13  4  0  0  0  0
 13 14  1  0  0  0  0
 14 15  4  0  0  0  0
 15 16  4  0  0  0  0
 16 17  4  0  0  0  0
 17 18  4  0  0  0  0
 18 19  1  0  0  0  0
 18 20  4  0  0  0  0
 14 20  4  0  0  0  0
 20 21  1  0  0  0  0
 13 22  4  0  0  0  0
 22 23  4  0  0  0  0
 10 23  4  0  0  0  0
M  END
> <IC50(uM)>
0.2

> <Outcome>
1.0

> <BindingDB ID>
52796

> <BindingDB MonomerID>
29036

> <BindingDB Ligand Name>
cyanohydroxybutenamide, 26

> <Curation/DataSource>
Curated from the literature by BindingDB

> <Article DOI>
10.1021/jm800963t

> <PMID>
19351152

> <Patent Number>
?

> <Authors>
Davies, M; Heikkil&auml;, T; McConkey, GA; Fishwick, CW; Parsons, MR; Johnson, AP

> <Link to Ligand in BindingDB>
http://www.bindingdb.org/bind/chemsearch/marvin/MolStructure.jsp?monomerid=29036

> <Link to Ligand-Target Pair in BindingDB>
http://www.bindingdb.org/jsp/dbsearch/PrimarySearch_ki.jsp?energyterm=kJ/mole&tag=r21&monomerid=29036&enzyme=Dihydroorotate+dehydrogenase&column=ki&startPg=0&Increment=50&submit=Search

> <PubChem CID>
91896062

> <PubChem SID>
81054465

$$$$

  Mrv2115 07222212352D          

 35 38  0  0  0  0            999 V2000
   -5.1659    1.4455    0.0000 C   0  0  0  0  0  0  0  0  0  0  0  0
   -5.5784    0.7310    0.0000 C   0  0  0  0  0  0  0  0  0  0  0  0
   -6.4034    0.7310    0.0000 C   0  0  0  0  0  0  0  0  0  0  0  0
   -6.8159    0.0165    0.0000 C   0  0  0  0  0  0  0  0  0  0  0  0
   -6.4034   -0.6979    0.0000 C   0  0  0  0  0  0  0  0  0  0  0  0
   -5.5784   -0.6979    0.0000 C   0  0  0  0  0  0  0  0  0  0  0  0
   -5.1659   -1.4124    0.0000 F   0  0  0  0  0  0  0  0  0  0  0  0
   -5.1659    0.0165    0.0000 C   0  0  0  0  0  0  0  0  0  0  0  0
   -4.3409    0.0165    0.0000 N   0  0  0  0  0  0  0  0  0  0  0  0
   -3.9284   -0.6979    0.0000 C   0  0  0  0  0  0  0  0  0  0  0  0
   -4.3409   -1.4124    0.0000 O   0  0  0  0  0  0  0  0  0  0  0  0
   -3.1034   -0.6979    0.0000 C   0  0  0  0  0  0  0  0  0  0  0  0
   -2.6909    0.0165    0.0000 C   0  0  0  0  0  0  0  0  0  0  0  0
   -1.8659    0.0165    0.0000 C   0  0  0  0  0  0  0  0  0  0  0  0
   -1.4534    0.7310    0.0000 F   0  0  0  0  0  0  0  0  0  0  0  0
   -1.4534   -0.6979    0.0000 C   0  0  0  0  0  0  0  0  0  0  0  0
   -0.6284   -0.6979    0.0000 N   0  0  0  0  0  0  0  0  0  0  0  0
   -0.1435   -1.3654    0.0000 N   0  0  0  0  0  0  0  0  0  0  0  0
    0.6411   -1.1104    0.0000 C   0  0  0  0  0  0  0  0  0  0  0  0
    0.6411   -0.2854    0.0000 N   0  0  0  0  0  0  0  0  0  0  0  0
   -0.1435   -0.0305    0.0000 C   0  0  0  0  0  0  0  0  0  0  0  0
   -0.3984    0.7541    0.0000 O   0  0  0  0  0  0  0  0  0  0  0  0
    1.3556    0.1271    0.0000 C   0  0  0  0  0  0  0  0  0  0  0  0
    2.0701   -0.2854    0.0000 C   0  0  0  0  0  0  0  0  0  0  0  0
    2.0701   -1.1104    0.0000 C   0  0  0  0  0  0  0  0  0  0  0  0
    1.3556   -1.5229    0.0000 C   0  0  0  0  0  0  0  0  0  0  0  0
   -1.8659   -1.4124    0.0000 C   0  0  0  0  0  0  0  0  0  0  0  0
   -2.6909   -1.4124    0.0000 C   0  0  0  0  0  0  0  0  0  0  0  0
   -3.1034   -2.1269    0.0000 O   0  0  0  0  0  0  0  0  0  0  0  0
   -2.6909   -2.8414    0.0000 C   0  0  0  0  0  0  0  0  0  0  0  0
   -1.8659   -2.8414    0.0000 C   0  0  0  0  0  0  0  0  0  0  0  0
   -3.1034   -3.5558    0.0000 C   0  0  0  0  0  0  0  0  0  0  0  0
   -3.8179   -3.1433    0.0000 F   0  0  0  0  0  0  0  0  0  0  0  0
   -2.3890   -3.9683    0.0000 F   0  0  0  0  0  0  0  0  0  0  0  0
   -3.5159   -4.2703    0.0000 F   0  0  0  0  0  0  0  0  0  0  0  0
  1  2  1  0  0  0  0
  2  3  4  0  0  0  0
  3  4  4  0  0  0  0
  4  5  4  0  0  0  0
  5  6  4  0  0  0  0
  6  7  1  0  0  0  0
  6  8  4  0  0  0  0
  2  8  4  0  0  0  0
  8  9  1  0  0  0  0
  9 10  1  0  0  0  0
 10 11  2  0  0  0  0
 10 12  1  0  0  0  0
 12 13  4  0  0  0  0
 13 14  4  0  0  0  0
 14 15  1  0  0  0  0
 14 16  4  0  0  0  0
 16 17  1  0  0  0  0
 17 18  4  0  0  0  0
 18 19  4  0  0  0  0
 19 20  4  0  0  0  0
 20 21  4  0  0  0  0
 17 21  4  0  0  0  0
 21 22  2  0  0  0  0
 20 23  1  0  0  0  0
 23 24  1  0  0  0  0
 24 25  1  0  0  0  0
 25 26  1  0  0  0  0
 19 26  1  0  0  0  0
 16 27  4  0  0  0  0
 27 28  4  0  0  0  0
 12 28  4  0  0  0  0
 28 29  1  0  0  0  0
 29 30  1  0  0  0  0
 30 31  1  0  0  0  0
 30 32  1  0  0  0  0
 32 33  1  0  0  0  0
 32 34  1  0  0  0  0
 32 35  1  0  0  0  0
M  END
> <IC50(uM)>
0.022466000000000003

> <Outcome>
1.0

> <BindingDB ID>
1020454; 1020662; 1020453

> <BindingDB MonomerID>
490403; 490591

> <BindingDB Ligand Name>
5-fluoro-N-(2-fluoro-6-methylphenyl)-4-(3-oxo-5,6,7,8-tetrahydro[1,2,4]triazolo[4,3-a]pyridin-2(3H)-yl)-2-{[(2S)-1,1,1-trifluoropropan-2-yl]oxy}benzamide::US10968216, Example 71; 5-fluoro-N-(2-fluoro-6-methylphenyl)-4-(3-oxo-5,6,7,8-tetrahydro[1,2,4]triazolo[4,3-a]pyridin-2(3H)-yl)-2-{[(2R)-1,1,1-trifluoropropan-2-yl]oxy}benzamide::US10968216, Example 259

> <Curation/DataSource>
US Patent

> <Article DOI>
?

> <PMID>
?

> <Patent Number>
US10968216

> <Authors>
Gradl, SN; Nguyen, D; Eis, K; Gunther, J; Stellfeld, T; Janzer, A; Christian, S; Mueller, T; Sheikh, SE; Zhou, HJ; Zhao, C; Sykes, DB; Ferrara, SJ; Liu, K; Herbert, SA; Merz, C; Niehues, M; Nising, CF; Schafer, M; Zimmermann, K; Knablein, J; Thede, K; Faupel, T

> <Link to Ligand in BindingDB>
http://www.bindingdb.org/bind/chemsearch/marvin/MolStructure.jsp?monomerid=490403; http://www.bindingdb.org/bind/chemsearch/marvin/MolStructure.jsp?monomerid=490591

> <Link to Ligand-Target Pair in BindingDB>
http://www.bindingdb.org/jsp/dbsearch/PrimarySearch_ki.jsp?energyterm=kJ/mole&tag=r21&monomerid=490403&enzyme=Dihydroorotate+dehydrogenase&column=ki&startPg=0&Increment=50&submit=Search; http://www.bindingdb.org/jsp/dbsearch/PrimarySearch_ki.jsp?energyterm=kJ/mole&tag=r21&monomerid=490591&enzyme=Dihydroorotate+dehydrogenase&column=ki&startPg=0&Increment=50&submit=Search

> <PubChem CID>
134474119; 134474072

> <PubChem SID>
447117130; 447117317

$$$$

  Mrv2115 07222212352D          

 18 19  0  0  0  0            999 V2000
   -0.1067   -0.0616    0.0000 C   0  0  0  0  0  0  0  0  0  0  0  0
    0.6078   -0.4741    0.0000 C   0  0  0  0  0  0  0  0  0  0  0  0
    1.3222   -0.0616    0.0000 O   0  0  0  0  0  0  0  0  0  0  0  0
    2.0367   -0.4741    0.0000 C   0  0  0  0  0  0  0  0  0  0  0  0
    2.7512   -0.0616    0.0000 O   0  0  0  0  0  0  0  0  0  0  0  0
    2.0367   -1.2991    0.0000 C   0  0  0  0  0  0  0  0  0  0  0  0
    1.3693   -1.7840    0.0000 C   0  0  0  0  0  0  0  0  0  0  0  0
    0.5846   -1.5291    0.0000 O   0  0  0  0  0  0  0  0  0  0  0  0
    1.6242   -2.5687    0.0000 C   0  0  0  0  0  0  0  0  0  0  0  0
    2.4492   -2.5687    0.0000 S   0  0  0  0  0  0  0  0  0  0  0  0
    2.7041   -1.7840    0.0000 C   0  0  0  0  0  0  0  0  0  0  0  0
    3.4888   -1.5291    0.0000 N   0  0  0  0  0  0  0  0  0  0  0  0
    4.1019   -2.0811    0.0000 C   0  0  0  0  0  0  0  0  0  0  0  0
    4.8865   -1.8262    0.0000 C   0  0  0  0  0  0  0  0  0  0  0  0
    5.4996   -2.3782    0.0000 C   0  0  0  0  0  0  0  0  0  0  0  0
    5.3281   -3.1852    0.0000 C   0  0  0  0  0  0  0  0  0  0  0  0
    4.5434   -3.4401    0.0000 C   0  0  0  0  0  0  0  0  0  0  0  0
    3.9303   -2.8881    0.0000 C   0  0  0  0  0  0  0  0  0  0  0  0
  1  2  1  0  0  0  0
  2  3  1  0  0  0  0
  3  4  1  0  0  0  0
  4  5  2  0  0  0  0
  4  6  1  0  0  0  0
  6  7  4  0  0  0  0
  7  8  1  0  0  0  0
  7  9  4  0  0  0  0
  9 10  4  0  0  0  0
 10 11  4  0  0  0  0
  6 11  4  0  0  0  0
 11 12  1  0  0  0  0
 12 13  1  0  0  0  0
 13 14  4  0  0  0  0
 14 15  4  0  0  0  0
 15 16  4  0  0  0  0
 16 17  4  0  0  0  0
 17 18  4  0  0  0  0
 13 18  4  0  0  0  0
M  END
> <IC50(uM)>
50.0

> <Outcome>
0.0

> <BindingDB ID>
51079183

> <BindingDB MonomerID>
50441291

> <BindingDB Ligand Name>
CHEMBL1334527

> <Curation/DataSource>
ChEMBL

> <Article DOI>
10.1021/jm400938g

> <PMID>
24073986

> <Patent Number>
?

> <Authors>
Xu, M; Zhu, J; Diao, Y; Zhou, H; Ren, X; Sun, D; Huang, J; Han, D; Zhao, Z; Zhu, L; Xu, Y; Li, H

> <Link to Ligand in BindingDB>
http://www.bindingdb.org/bind/chemsearch/marvin/MolStructure.jsp?monomerid=50441291

> <Link to Ligand-Target Pair in BindingDB>
http://www.bindingdb.org/jsp/dbsearch/PrimarySearch_ki.jsp?energyterm=kJ/mole&tag=r21&monomerid=50441291&enzyme=Dihydroorotate+dehydrogenase&column=ki&startPg=0&Increment=50&submit=Search

> <PubChem CID>
91898852

> <PubChem SID>
175453608

$$$$

  Mrv2115 07222212352D          

 35 38  0  0  0  0            999 V2000
   -3.1034    2.1599    0.0000 C   0  0  0  0  0  0  0  0  0  0  0  0
   -2.6909    1.4455    0.0000 C   0  0  0  0  0  0  0  0  0  0  0  0
   -3.1034    0.7310    0.0000 O   0  0  0  0  0  0  0  0  0  0  0  0
   -2.6909    0.0165    0.0000 C   0  0  0  0  0  0  0  0  0  0  0  0
   -1.8659    0.0165    0.0000 C   0  0  0  0  0  0  0  0  0  0  0  0
   -1.4534   -0.6979    0.0000 C   0  0  0  0  0  0  0  0  0  0  0  0
   -0.6284   -0.6979    0.0000 N   0  0  0  0  0  0  0  0  0  0  0  0
   -0.1435   -1.3654    0.0000 N   0  0  0  0  0  0  0  0  0  0  0  0
    0.6411   -1.1104    0.0000 C   0  0  0  0  0  0  0  0  0  0  0  0
    0.6411   -0.2854    0.0000 N   0  0  0  0  0  0  0  0  0  0  0  0
   -0.1435   -0.0305    0.0000 C   0  0  0  0  0  0  0  0  0  0  0  0
   -0.3984    0.7541    0.0000 O   0  0  0  0  0  0  0  0  0  0  0  0
    1.3556    0.1271    0.0000 C   0  0  0  0  0  0  0  0  0  0  0  0
    2.0701   -0.2854    0.0000 C   0  0  0  0  0  0  0  0  0  0  0  0
    2.0701   -1.1104    0.0000 O   0  0  0  0  0  0  0  0  0  0  0  0
    1.3556   -1.5229    0.0000 C   0  0  0  0  0  0  0  0  0  0  0  0
   -1.8659   -1.4124    0.0000 C   0  0  0  0  0  0  0  0  0  0  0  0
   -1.4534   -2.1269    0.0000 F   0  0  0  0  0  0  0  0  0  0  0  0
   -2.6909   -1.4124    0.0000 C   0  0  0  0  0  0  0  0  0  0  0  0
   -3.1034   -0.6979    0.0000 C   0  0  0  0  0  0  0  0  0  0  0  0
   -3.9284   -0.6979    0.0000 C   0  0  0  0  0  0  0  0  0  0  0  0
   -4.3409    0.0165    0.0000 O   0  0  0  0  0  0  0  0  0  0  0  0
   -4.3409   -1.4124    0.0000 N   0  0  0  0  0  0  0  0  0  0  0  0
   -5.1659   -1.4124    0.0000 C   0  0  0  0  0  0  0  0  0  0  0  0
   -5.5784   -2.1269    0.0000 C   0  0  0  0  0  0  0  0  0  0  0  0
   -6.4034   -2.1269    0.0000 C   0  0  0  0  0  0  0  0  0  0  0  0
   -6.8159   -1.4124    0.0000 C   0  0  0  0  0  0  0  0  0  0  0  0
   -7.6409   -1.4124    0.0000 F   0  0  0  0  0  0  0  0  0  0  0  0
   -6.4034   -0.6979    0.0000 C   0  0  0  0  0  0  0  0  0  0  0  0
   -5.5784   -0.6979    0.0000 C   0  0  0  0  0  0  0  0  0  0  0  0
   -5.1659    0.0165    0.0000 Cl  0  0  0  0  0  0  0  0  0  0  0  0
   -1.8659    1.4455    0.0000 C   0  0  0  0  0  0  0  0  0  0  0  0
   -1.8659    0.6205    0.0000 F   0  0  0  0  0  0  0  0  0  0  0  0
   -1.8659    2.2705    0.0000 F   0  0  0  0  0  0  0  0  0  0  0  0
   -1.0409    1.4455    0.0000 F   0  0  0  0  0  0  0  0  0  0  0  0
  1  2  1  0  0  0  0
  2  3  1  0  0  0  0
  3  4  1  0  0  0  0
  4  5  4  0  0  0  0
  5  6  4  0  0  0  0
  6  7  1  0  0  0  0
  7  8  4  0  0  0  0
  8  9  4  0  0  0  0
  9 10  4  0  0  0  0
 10 11  4  0  0  0  0
  7 11  4  0  0  0  0
 11 12  2  0  0  0  0
 10 13  1  0  0  0  0
 13 14  1  0  0  0  0
 14 15  1  0  0  0  0
 15 16  1  0  0  0  0
  9 16  1  0  0  0  0
  6 17  4  0  0  0  0
 17 18  1  0  0  0  0
 17 19  4  0  0  0  0
 19 20  4  0  0  0  0
  4 20  4  0  0  0  0
 20 21  1  0  0  0  0
 21 22  2  0  0  0  0
 21 23  1  0  0  0  0
 23 24  1  0  0  0  0
 24 25  4  0  0  0  0
 25 26  4  0  0  0  0
 26 27  4  0  0  0  0
 27 28  1  0  0  0  0
 27 29  4  0  0  0  0
 29 30  4  0  0  0  0
 24 30  4  0  0  0  0
 30 31  1  0  0  0  0
  2 32  1  0  0  0  0
 32 33  1  0  0  0  0
 32 34  1  0  0  0  0
 32 35  1  0  0  0  0
M  END
> <IC50(uM)>
0.25

> <Outcome>
1.0

> <BindingDB ID>
1020595

> <BindingDB MonomerID>
490534

> <BindingDB Ligand Name>
N-(2-chloro-4-fluorophenyl)-5-fluoro-4-(3-oxo-5,6-dihydro-3H-[1,2,4]triazolo[3,4-c][1,4]oxazin-2(8H)-yl)-2-{[(2S)-1,1,1-trifluoropropan-2-yl]oxy}benzamide::US10968216, Example 202

> <Curation/DataSource>
US Patent

> <Article DOI>
?

> <PMID>
?

> <Patent Number>
US10968216

> <Authors>
Gradl, SN; Nguyen, D; Eis, K; Gunther, J; Stellfeld, T; Janzer, A; Christian, S; Mueller, T; Sheikh, SE; Zhou, HJ; Zhao, C; Sykes, DB; Ferrara, SJ; Liu, K; Herbert, SA; Merz, C; Niehues, M; Nising, CF; Schafer, M; Zimmermann, K; Knablein, J; Thede, K; Faupel, T

> <Link to Ligand in BindingDB>
http://www.bindingdb.org/bind/chemsearch/marvin/MolStructure.jsp?monomerid=490534

> <Link to Ligand-Target Pair in BindingDB>
http://www.bindingdb.org/jsp/dbsearch/PrimarySearch_ki.jsp?energyterm=kJ/mole&tag=r21&monomerid=490534&enzyme=Dihydroorotate+dehydrogenase&column=ki&startPg=0&Increment=50&submit=Search

> <PubChem CID>
134474383

> <PubChem SID>
447117260

$$$$

  Mrv2115 07222212352D          

 32 34  0  0  0  0            999 V2000
    0.7145   -3.7125    0.0000 O   0  0  0  0  0  0  0  0  0  0  0  0
    1.4289   -4.1250    0.0000 C   0  0  0  0  0  0  0  0  0  0  0  0
    2.1434   -3.7125    0.0000 O   0  0  0  0  0  0  0  0  0  0  0  0
    1.4289   -4.9500    0.0000 C   0  0  0  0  0  0  0  0  0  0  0  0
    2.0964   -5.4349    0.0000 C   0  0  0  0  0  0  0  0  0  0  0  0
    2.8810   -5.1800    0.0000 C   0  0  0  0  0  0  0  0  0  0  0  0
    3.4941   -5.7320    0.0000 O   0  0  0  0  0  0  0  0  0  0  0  0
    3.0525   -4.3730    0.0000 N   0  0  0  0  0  0  0  0  0  0  0  0
    3.8372   -4.1181    0.0000 C   0  0  0  0  0  0  0  0  0  0  0  0
    4.0087   -3.3111    0.0000 C   0  0  0  0  0  0  0  0  0  0  0  0
    3.3956   -2.7591    0.0000 F   0  0  0  0  0  0  0  0  0  0  0  0
    4.7933   -3.0562    0.0000 C   0  0  0  0  0  0  0  0  0  0  0  0
    4.9648   -2.2492    0.0000 F   0  0  0  0  0  0  0  0  0  0  0  0
    5.4064   -3.6082    0.0000 C   0  0  0  0  0  0  0  0  0  0  0  0
    6.1910   -3.3533    0.0000 C   0  0  0  0  0  0  0  0  0  0  0  0
    6.3625   -2.5463    0.0000 C   0  0  0  0  0  0  0  0  0  0  0  0
    7.1472   -2.2913    0.0000 C   0  0  0  0  0  0  0  0  0  0  0  0
    7.7603   -2.8434    0.0000 C   0  0  0  0  0  0  0  0  0  0  0  0
    7.5887   -3.6503    0.0000 C   0  0  0  0  0  0  0  0  0  0  0  0
    8.2018   -4.2024    0.0000 O   0  0  0  0  0  0  0  0  0  0  0  0
    8.9864   -3.9474    0.0000 C   0  0  0  0  0  0  0  0  0  0  0  0
    9.7711   -3.6925    0.0000 F   0  0  0  0  0  0  0  0  0  0  0  0
    9.2414   -4.7321    0.0000 F   0  0  0  0  0  0  0  0  0  0  0  0
    8.7315   -3.1628    0.0000 F   0  0  0  0  0  0  0  0  0  0  0  0
    6.8041   -3.9053    0.0000 C   0  0  0  0  0  0  0  0  0  0  0  0
    5.2349   -4.4152    0.0000 C   0  0  0  0  0  0  0  0  0  0  0  0
    5.8480   -4.9672    0.0000 F   0  0  0  0  0  0  0  0  0  0  0  0
    4.4502   -4.6701    0.0000 C   0  0  0  0  0  0  0  0  0  0  0  0
    4.2787   -5.4771    0.0000 F   0  0  0  0  0  0  0  0  0  0  0  0
    1.8414   -6.2195    0.0000 C   0  0  0  0  0  0  0  0  0  0  0  0
    1.0164   -6.2195    0.0000 O   0  0  0  0  0  0  0  0  0  0  0  0
    0.7615   -5.4349    0.0000 C   0  0  0  0  0  0  0  0  0  0  0  0
  1  2  2  0  0  0  0
  2  3  1  0  0  0  0
  2  4  1  0  0  0  0
  4  5  2  0  0  0  0
  5  6  1  0  0  0  0
  6  7  2  0  0  0  0
  6  8  1  0  0  0  0
  8  9  1  0  0  0  0
  9 10  4  0  0  0  0
 10 11  1  0  0  0  0
 10 12  4  0  0  0  0
 12 13  1  0  0  0  0
 12 14  4  0  0  0  0
 14 15  1  0  0  0  0
 15 16  4  0  0  0  0
 16 17  4  0  0  0  0
 17 18  4  0  0  0  0
 18 19  4  0  0  0  0
 19 20  1  0  0  0  0
 20 21  1  0  0  0  0
 21 22  1  0  0  0  0
 21 23  1  0  0  0  0
 21 24  1  0  0  0  0
 19 25  4  0  0  0  0
 15 25  4  0  0  0  0
 14 26  4  0  0  0  0
 26 27  1  0  0  0  0
 26 28  4  0  0  0  0
  9 28  4  0  0  0  0
 28 29  1  0  0  0  0
  5 30  1  0  0  0  0
 30 31  1  0  0  0  0
 31 32  1  0  0  0  0
  4 32  1  0  0  0  0
M  END
> <IC50(uM)>
0.058

> <Outcome>
1.0

> <BindingDB ID>
50319906

> <BindingDB MonomerID>
50173159

> <BindingDB Ligand Name>
4-(2,3,5,6-Tetrafluoro-3'-trifluoromethoxy-biphenyl-4-ylcarbamoyl)-2,5-dihydro-furan-3-carboxylic acid::CHEMBL194954

> <Curation/DataSource>
ChEMBL

> <Article DOI>
10.1016/j.bmcl.2005.07.053

> <PMID>
16143532

> <Patent Number>
?

> <Authors>
Leban, J; Kralik, M; Mies, J; Gassen, M; Tentschert, K; Baumgartner, R

> <Link to Ligand in BindingDB>
http://www.bindingdb.org/bind/chemsearch/marvin/MolStructure.jsp?monomerid=50173159

> <Link to Ligand-Target Pair in BindingDB>
http://www.bindingdb.org/jsp/dbsearch/PrimarySearch_ki.jsp?energyterm=kJ/mole&tag=r21&monomerid=50173159&enzyme=Dihydroorotate+dehydrogenase&column=ki&startPg=0&Increment=50&submit=Search

> <PubChem CID>
44403250

> <PubChem SID>
104059130

$$$$

  Mrv2115 07222212352D          

 36 39  0  0  0  0            999 V2000
   -4.3409    1.4455    0.0000 C   0  0  0  0  0  0  0  0  0  0  0  0
   -5.1659    1.4455    0.0000 C   0  0  0  0  0  0  0  0  0  0  0  0
   -5.5784    0.7310    0.0000 C   0  0  0  0  0  0  0  0  0  0  0  0
   -6.4034    0.7310    0.0000 C   0  0  0  0  0  0  0  0  0  0  0  0
   -6.8159    0.0165    0.0000 C   0  0  0  0  0  0  0  0  0  0  0  0
   -6.4034   -0.6979    0.0000 C   0  0  0  0  0  0  0  0  0  0  0  0
   -5.5784   -0.6979    0.0000 C   0  0  0  0  0  0  0  0  0  0  0  0
   -5.1659   -1.4124    0.0000 Cl  0  0  0  0  0  0  0  0  0  0  0  0
   -5.1659    0.0165    0.0000 C   0  0  0  0  0  0  0  0  0  0  0  0
   -4.3409    0.0165    0.0000 N   0  0  0  0  0  0  0  0  0  0  0  0
   -3.9284   -0.6979    0.0000 C   0  0  0  0  0  0  0  0  0  0  0  0
   -4.3409   -1.4124    0.0000 O   0  0  0  0  0  0  0  0  0  0  0  0
   -3.1034   -0.6979    0.0000 C   0  0  0  0  0  0  0  0  0  0  0  0
   -2.6909    0.0165    0.0000 C   0  0  0  0  0  0  0  0  0  0  0  0
   -1.8659    0.0165    0.0000 C   0  0  0  0  0  0  0  0  0  0  0  0
   -1.4534    0.7310    0.0000 F   0  0  0  0  0  0  0  0  0  0  0  0
   -1.4534   -0.6979    0.0000 C   0  0  0  0  0  0  0  0  0  0  0  0
   -0.6284   -0.6979    0.0000 N   0  0  0  0  0  0  0  0  0  0  0  0
   -0.1435   -1.3654    0.0000 N   0  0  0  0  0  0  0  0  0  0  0  0
    0.6411   -1.1104    0.0000 C   0  0  0  0  0  0  0  0  0  0  0  0
    0.6411   -0.2854    0.0000 N   0  0  0  0  0  0  0  0  0  0  0  0
   -0.1435   -0.0305    0.0000 C   0  0  0  0  0  0  0  0  0  0  0  0
   -0.3984    0.7541    0.0000 O   0  0  0  0  0  0  0  0  0  0  0  0
    1.3556    0.1271    0.0000 C   0  0  0  0  0  0  0  0  0  0  0  0
    2.0701   -0.2854    0.0000 C   0  0  0  0  0  0  0  0  0  0  0  0
    2.0701   -1.1104    0.0000 C   0  0  0  0  0  0  0  0  0  0  0  0
    1.3556   -1.5229    0.0000 C   0  0  0  0  0  0  0  0  0  0  0  0
   -1.8659   -1.4124    0.0000 C   0  0  0  0  0  0  0  0  0  0  0  0
   -2.6909   -1.4124    0.0000 C   0  0  0  0  0  0  0  0  0  0  0  0
   -3.1034   -2.1269    0.0000 O   0  0  0  0  0  0  0  0  0  0  0  0
   -2.6909   -2.8414    0.0000 C   0  0  0  0  0  0  0  0  0  0  0  0
   -1.8659   -2.8414    0.0000 C   0  0  0  0  0  0  0  0  0  0  0  0
   -3.1034   -3.5558    0.0000 C   0  0  0  0  0  0  0  0  0  0  0  0
   -3.8179   -3.1433    0.0000 F   0  0  0  0  0  0  0  0  0  0  0  0
   -2.3890   -3.9683    0.0000 F   0  0  0  0  0  0  0  0  0  0  0  0
   -3.5159   -4.2703    0.0000 F   0  0  0  0  0  0  0  0  0  0  0  0
  1  2  1  0  0  0  0
  2  3  1  0  0  0  0
  3  4  4  0  0  0  0
  4  5  4  0  0  0  0
  5  6  4  0  0  0  0
  6  7  4  0  0  0  0
  7  8  1  0  0  0  0
  7  9  4  0  0  0  0
  3  9  4  0  0  0  0
  9 10  1  0  0  0  0
 10 11  1  0  0  0  0
 11 12  2  0  0  0  0
 11 13  1  0  0  0  0
 13 14  4  0  0  0  0
 14 15  4  0  0  0  0
 15 16  1  0  0  0  0
 15 17  4  0  0  0  0
 17 18  1  0  0  0  0
 18 19  4  0  0  0  0
 19 20  4  0  0  0  0
 20 21  4  0  0  0  0
 21 22  4  0  0  0  0
 18 22  4  0  0  0  0
 22 23  2  0  0  0  0
 21 24  1  0  0  0  0
 24 25  1  0  0  0  0
 25 26  1  0  0  0  0
 26 27  1  0  0  0  0
 20 27  1  0  0  0  0
 17 28  4  0  0  0  0
 28 29  4  0  0  0  0
 13 29  4  0  0  0  0
 29 30  1  0  0  0  0
 30 31  1  0  0  0  0
 31 32  1  0  0  0  0
 31 33  1  0  0  0  0
 33 34  1  0  0  0  0
 33 35  1  0  0  0  0
 33 36  1  0  0  0  0
M  END
> <IC50(uM)>
0.002

> <Outcome>
1.0

> <BindingDB ID>
1020442

> <BindingDB MonomerID>
490393

> <BindingDB Ligand Name>
N-(2-chloro-6-methylphenyl)-5-fluoro-4-(3-oxo-5,6,7,8-tetrahydro[1,2,4]triazolo[4,3-a]pyridin-2(3H)-yl)-2-{[(2S)-1,1,1-trifluoropropan-2-yl]oxy}benzamide::US10968216, Example 61

> <Curation/DataSource>
US Patent

> <Article DOI>
?

> <PMID>
?

> <Patent Number>
US10968216

> <Authors>
Gradl, SN; Nguyen, D; Eis, K; Gunther, J; Stellfeld, T; Janzer, A; Christian, S; Mueller, T; Sheikh, SE; Zhou, HJ; Zhao, C; Sykes, DB; Ferrara, SJ; Liu, K; Herbert, SA; Merz, C; Niehues, M; Nising, CF; Schafer, M; Zimmermann, K; Knablein, J; Thede, K; Faupel, T

> <Link to Ligand in BindingDB>
http://www.bindingdb.org/bind/chemsearch/marvin/MolStructure.jsp?monomerid=490393

> <Link to Ligand-Target Pair in BindingDB>
http://www.bindingdb.org/jsp/dbsearch/PrimarySearch_ki.jsp?energyterm=kJ/mole&tag=r21&monomerid=490393&enzyme=Dihydroorotate+dehydrogenase&column=ki&startPg=0&Increment=50&submit=Search

> <PubChem CID>
153291226

> <PubChem SID>
447117120

$$$$

  Mrv2115 07222212352D          

 37 41  0  0  0  0            999 V2000
    4.0668    2.3479    0.0000 C   0  0  0  0  0  0  0  0  0  0  0  0
    3.3523    1.9354    0.0000 C   0  0  0  0  0  0  0  0  0  0  0  0
    3.3523    1.1104    0.0000 C   0  0  0  0  0  0  0  0  0  0  0  0
    2.6378    0.6979    0.0000 C   0  0  0  0  0  0  0  0  0  0  0  0
    2.6378   -0.1271    0.0000 C   0  0  0  0  0  0  0  0  0  0  0  0
    1.9233   -0.5396    0.0000 O   0  0  0  0  0  0  0  0  0  0  0  0
    3.3523   -0.5396    0.0000 O   0  0  0  0  0  0  0  0  0  0  0  0
    1.9233    1.1104    0.0000 C   0  0  0  0  0  0  0  0  0  0  0  0
    1.1387    0.8555    0.0000 N   0  0  0  0  0  0  0  0  0  0  0  0
    0.6538    1.5229    0.0000 C   0  0  0  0  0  0  0  0  0  0  0  0
   -0.1712    1.5229    0.0000 C   0  0  0  0  0  0  0  0  0  0  0  0
   -0.5837    0.8085    0.0000 C   0  0  0  0  0  0  0  0  0  0  0  0
   -0.1712    0.0940    0.0000 F   0  0  0  0  0  0  0  0  0  0  0  0
   -1.4087    0.8085    0.0000 C   0  0  0  0  0  0  0  0  0  0  0  0
   -1.8212    0.0940    0.0000 F   0  0  0  0  0  0  0  0  0  0  0  0
   -1.8212    1.5229    0.0000 C   0  0  0  0  0  0  0  0  0  0  0  0
   -2.6462    1.5229    0.0000 C   0  0  0  0  0  0  0  0  0  0  0  0
   -3.0587    0.8085    0.0000 C   0  0  0  0  0  0  0  0  0  0  0  0
   -3.8837    0.8085    0.0000 C   0  0  0  0  0  0  0  0  0  0  0  0
   -4.2962    1.5229    0.0000 C   0  0  0  0  0  0  0  0  0  0  0  0
   -5.1212    1.5229    0.0000 N   0  0  0  0  0  0  0  0  0  0  0  0
   -5.5337    0.8085    0.0000 C   0  0  0  0  0  0  0  0  0  0  0  0
   -5.1212    0.0940    0.0000 O   0  0  0  0  0  0  0  0  0  0  0  0
   -6.3587    0.8085    0.0000 C   0  0  0  0  0  0  0  0  0  0  0  0
   -6.8436    0.1410    0.0000 C   0  0  0  0  0  0  0  0  0  0  0  0
   -7.6282    0.3960    0.0000 C   0  0  0  0  0  0  0  0  0  0  0  0
   -7.6282    1.2210    0.0000 C   0  0  0  0  0  0  0  0  0  0  0  0
   -6.8436    1.4759    0.0000 N   0  0  0  0  0  0  0  0  0  0  0  0
   -3.8837    2.2374    0.0000 C   0  0  0  0  0  0  0  0  0  0  0  0
   -3.0587    2.2374    0.0000 C   0  0  0  0  0  0  0  0  0  0  0  0
   -1.4087    2.2374    0.0000 C   0  0  0  0  0  0  0  0  0  0  0  0
   -1.8212    2.9519    0.0000 F   0  0  0  0  0  0  0  0  0  0  0  0
   -0.5837    2.2374    0.0000 C   0  0  0  0  0  0  0  0  0  0  0  0
   -0.1712    2.9519    0.0000 F   0  0  0  0  0  0  0  0  0  0  0  0
    1.1387    2.1904    0.0000 N   0  0  0  0  0  0  0  0  0  0  0  0
    1.9233    1.9354    0.0000 C   0  0  0  0  0  0  0  0  0  0  0  0
    2.6378    2.3479    0.0000 C   0  0  0  0  0  0  0  0  0  0  0  0
  1  2  1  0  0  0  0
  2  3  4  0  0  0  0
  3  4  4  0  0  0  0
  4  5  1  0  0  0  0
  5  6  2  0  0  0  0
  5  7  1  0  0  0  0
  4  8  4  0  0  0  0
  8  9  4  0  0  0  0
  9 10  4  0  0  0  0
 10 11  1  0  0  0  0
 11 12  4  0  0  0  0
 12 13  1  0  0  0  0
 12 14  4  0  0  0  0
 14 15  1  0  0  0  0
 14 16  4  0  0  0  0
 16 17  1  0  0  0  0
 17 18  4  0  0  0  0
 18 19  4  0  0  0  0
 19 20  4  0  0  0  0
 20 21  1  0  0  0  0
 21 22  1  0  0  0  0
 22 23  2  0  0  0  0
 22 24  1  0  0  0  0
 24 25  1  0  0  0  0
 25 26  1  0  0  0  0
 26 27  1  0  0  0  0
 27 28  1  0  0  0  0
 24 28  1  0  0  0  0
 20 29  4  0  0  0  0
 29 30  4  0  0  0  0
 17 30  4  0  0  0  0
 16 31  4  0  0  0  0
 31 32  1  0  0  0  0
 31 33  4  0  0  0  0
 11 33  4  0  0  0  0
 33 34  1  0  0  0  0
 10 35  4  0  0  0  0
 35 36  4  0  0  0  0
  8 36  4  0  0  0  0
 36 37  4  0  0  0  0
  2 37  4  0  0  0  0
M  STY  1   1 DAT
M  SAL   1  1  35
M  SDT   1 MRV_IMPLICIT_H                                        
M  SDD   1     0.5304   -0.4125    DR    ALL  0       0  
M  SED   1 IMPL_H1
M  END
> <IC50(uM)>
0.056

> <Outcome>
1.0

> <BindingDB ID>
297787

> <BindingDB MonomerID>
155443

> <BindingDB Ligand Name>
US9006454, I85

> <Curation/DataSource>
US Patent

> <Article DOI>
?

> <PMID>
?

> <Patent Number>
US9006454

> <Authors>
Thunuguntla, SS; Subramanya, H; Kunnam, SR; Sanivaru Vijay, SR; Bingi, C; Kusanur, R; Schwarz, M; Arlt, M

> <Link to Ligand in BindingDB>
http://www.bindingdb.org/bind/chemsearch/marvin/MolStructure.jsp?monomerid=155443

> <Link to Ligand-Target Pair in BindingDB>
http://www.bindingdb.org/jsp/dbsearch/PrimarySearch_ki.jsp?energyterm=kJ/mole&tag=r21&monomerid=155443&enzyme=Dihydroorotate+dehydrogenase&column=ki&startPg=0&Increment=50&submit=Search

> <PubChem CID>
46947752

> <PubChem SID>
253658380

$$$$

  Mrv2115 07222212352D          

 38 42  0  0  0  0            999 V2000
   -3.5724   -1.2375    0.0000 C   0  0  0  0  0  0  0  0  0  0  0  0
   -3.5724   -0.4125    0.0000 C   0  0  0  0  0  0  0  0  0  0  0  0
   -2.8579    0.0000    0.0000 O   0  0  0  0  0  0  0  0  0  0  0  0
   -2.8579    0.8250    0.0000 C   0  0  0  0  0  0  0  0  0  0  0  0
   -3.5724    1.2375    0.0000 C   0  0  0  0  0  0  0  0  0  0  0  0
   -3.5724    2.0625    0.0000 C   0  0  0  0  0  0  0  0  0  0  0  0
   -4.2868    2.4750    0.0000 N   0  0  0  0  0  0  0  0  0  0  0  0
   -4.3731    3.2955    0.0000 N   0  0  0  0  0  0  0  0  0  0  0  0
   -5.1800    3.4670    0.0000 C   0  0  0  0  0  0  0  0  0  0  0  0
   -5.5925    2.7525    0.0000 N   0  0  0  0  0  0  0  0  0  0  0  0
   -5.0405    2.1394    0.0000 C   0  0  0  0  0  0  0  0  0  0  0  0
   -5.2120    1.3325    0.0000 O   0  0  0  0  0  0  0  0  0  0  0  0
   -6.4175    2.7525    0.0000 C   0  0  0  0  0  0  0  0  0  0  0  0
   -6.8300    3.4670    0.0000 C   0  0  0  0  0  0  0  0  0  0  0  0
   -6.4175    4.1815    0.0000 C   0  0  0  0  0  0  0  0  0  0  0  0
   -5.5925    4.1815    0.0000 C   0  0  0  0  0  0  0  0  0  0  0  0
   -2.8579    2.4750    0.0000 C   0  0  0  0  0  0  0  0  0  0  0  0
   -2.8579    3.3000    0.0000 F   0  0  0  0  0  0  0  0  0  0  0  0
   -2.1434    2.0625    0.0000 C   0  0  0  0  0  0  0  0  0  0  0  0
   -2.1434    1.2375    0.0000 C   0  0  0  0  0  0  0  0  0  0  0  0
   -1.4289    0.8250    0.0000 C   0  0  0  0  0  0  0  0  0  0  0  0
   -0.7145    1.2375    0.0000 O   0  0  0  0  0  0  0  0  0  0  0  0
   -1.4289    0.0000    0.0000 N   0  0  0  0  0  0  0  0  0  0  0  0
   -0.7145   -0.4125    0.0000 C   0  0  0  0  0  0  0  0  0  0  0  0
   -0.7145   -1.2375    0.0000 C   0  0  0  0  0  0  0  0  0  0  0  0
    0.0000   -1.6500    0.0000 C   0  0  0  0  0  0  0  0  0  0  0  0
    0.7145   -1.2375    0.0000 C   0  0  0  0  0  0  0  0  0  0  0  0
    0.7145   -0.4125    0.0000 C   0  0  0  0  0  0  0  0  0  0  0  0
    0.0000   -0.0000    0.0000 C   0  0  0  0  0  0  0  0  0  0  0  0
    1.4289   -0.0000    0.0000 O   0  0  0  0  0  0  0  0  0  0  0  0
    2.1434   -0.4125    0.0000 C   0  0  0  0  0  0  0  0  0  0  0  0
    2.1434   -1.2375    0.0000 C   0  0  0  0  0  0  0  0  0  0  0  0
    2.8579   -1.6500    0.0000 O   0  0  0  0  0  0  0  0  0  0  0  0
    1.4289   -1.6500    0.0000 N   0  0  0  0  0  0  0  0  0  0  0  0
   -4.2868    0.0000    0.0000 C   0  0  0  0  0  0  0  0  0  0  0  0
   -3.8743    0.7145    0.0000 F   0  0  0  0  0  0  0  0  0  0  0  0
   -4.6993   -0.7145    0.0000 F   0  0  0  0  0  0  0  0  0  0  0  0
   -5.0013    0.4125    0.0000 F   0  0  0  0  0  0  0  0  0  0  0  0
  1  2  1  0  0  0  0
  2  3  1  0  0  0  0
  3  4  1  0  0  0  0
  4  5  4  0  0  0  0
  5  6  4  0  0  0  0
  6  7  1  0  0  0  0
  7  8  4  0  0  0  0
  8  9  4  0  0  0  0
  9 10  4  0  0  0  0
 10 11  4  0  0  0  0
  7 11  4  0  0  0  0
 11 12  2  0  0  0  0
 10 13  1  0  0  0  0
 13 14  1  0  0  0  0
 14 15  1  0  0  0  0
 15 16  1  0  0  0  0
  9 16  1  0  0  0  0
  6 17  4  0  0  0  0
 17 18  1  0  0  0  0
 17 19  4  0  0  0  0
 19 20  4  0  0  0  0
  4 20  4  0  0  0  0
 20 21  1  0  0  0  0
 21 22  2  0  0  0  0
 21 23  1  0  0  0  0
 23 24  1  0  0  0  0
 24 25  4  0  0  0  0
 25 26  4  0  0  0  0
 26 27  4  0  0  0  0
 27 28  4  0  0  0  0
 28 29  4  0  0  0  0
 24 29  4  0  0  0  0
 28 30  1  0  0  0  0
 30 31  1  0  0  0  0
 31 32  1  0  0  0  0
 32 33  2  0  0  0  0
 32 34  1  0  0  0  0
 27 34  1  0  0  0  0
  2 35  1  0  0  0  0
 35 36  1  0  0  0  0
 35 37  1  0  0  0  0
 35 38  1  0  0  0  0
M  END
> <IC50(uM)>
0.16

> <Outcome>
1.0

> <BindingDB ID>
1020490

> <BindingDB MonomerID>
490438

> <BindingDB Ligand Name>
5-fluoro-N-(3-oxo-3,4-dihydro-2H-1,4-benzoxazin-7-yl)-4-(3-oxo-5,6,7,8-tetrahydro[1,2,4]triazolo[4,3-a]pyridin-2(3H)-yl)-2-{[(2S)-1,1,1-trifluoropropan-2-yl]oxy}benzamide::US10968216, Example 106

> <Curation/DataSource>
US Patent

> <Article DOI>
?

> <PMID>
?

> <Patent Number>
US10968216

> <Authors>
Gradl, SN; Nguyen, D; Eis, K; Gunther, J; Stellfeld, T; Janzer, A; Christian, S; Mueller, T; Sheikh, SE; Zhou, HJ; Zhao, C; Sykes, DB; Ferrara, SJ; Liu, K; Herbert, SA; Merz, C; Niehues, M; Nising, CF; Schafer, M; Zimmermann, K; Knablein, J; Thede, K; Faupel, T

> <Link to Ligand in BindingDB>
http://www.bindingdb.org/bind/chemsearch/marvin/MolStructure.jsp?monomerid=490438

> <Link to Ligand-Target Pair in BindingDB>
http://www.bindingdb.org/jsp/dbsearch/PrimarySearch_ki.jsp?energyterm=kJ/mole&tag=r21&monomerid=490438&enzyme=Dihydroorotate+dehydrogenase&column=ki&startPg=0&Increment=50&submit=Search

> <PubChem CID>
134474136

> <PubChem SID>
447117165

$$$$

  Mrv2115 07222212352D          

 36 39  0  0  0  0            999 V2000
   -4.3409    1.4455    0.0000 C   0  0  0  0  0  0  0  0  0  0  0  0
   -5.1659    1.4455    0.0000 O   0  0  0  0  0  0  0  0  0  0  0  0
   -5.5784    0.7310    0.0000 C   0  0  0  0  0  0  0  0  0  0  0  0
   -6.4034    0.7310    0.0000 N   0  0  0  0  0  0  0  0  0  0  0  0
   -6.8159    0.0165    0.0000 C   0  0  0  0  0  0  0  0  0  0  0  0
   -6.4034   -0.6979    0.0000 C   0  0  0  0  0  0  0  0  0  0  0  0
   -5.5784   -0.6979    0.0000 C   0  0  0  0  0  0  0  0  0  0  0  0
   -5.1659   -1.4124    0.0000 C   0  0  0  0  0  0  0  0  0  0  0  0
   -5.1659    0.0165    0.0000 C   0  0  0  0  0  0  0  0  0  0  0  0
   -4.3409    0.0165    0.0000 N   0  0  0  0  0  0  0  0  0  0  0  0
   -3.9284   -0.6979    0.0000 C   0  0  0  0  0  0  0  0  0  0  0  0
   -4.3409   -1.4124    0.0000 O   0  0  0  0  0  0  0  0  0  0  0  0
   -3.1034   -0.6979    0.0000 C   0  0  0  0  0  0  0  0  0  0  0  0
   -2.6909    0.0165    0.0000 C   0  0  0  0  0  0  0  0  0  0  0  0
   -1.8659    0.0165    0.0000 C   0  0  0  0  0  0  0  0  0  0  0  0
   -1.4534    0.7310    0.0000 F   0  0  0  0  0  0  0  0  0  0  0  0
   -1.4534   -0.6979    0.0000 C   0  0  0  0  0  0  0  0  0  0  0  0
   -0.6284   -0.6979    0.0000 N   0  0  0  0  0  0  0  0  0  0  0  0
   -0.1435   -1.3654    0.0000 N   0  0  0  0  0  0  0  0  0  0  0  0
    0.6411   -1.1104    0.0000 C   0  0  0  0  0  0  0  0  0  0  0  0
    0.6411   -0.2854    0.0000 N   0  0  0  0  0  0  0  0  0  0  0  0
   -0.1435   -0.0305    0.0000 C   0  0  0  0  0  0  0  0  0  0  0  0
   -0.3984    0.7541    0.0000 O   0  0  0  0  0  0  0  0  0  0  0  0
    1.3556    0.1271    0.0000 C   0  0  0  0  0  0  0  0  0  0  0  0
    2.0701   -0.2854    0.0000 C   0  0  0  0  0  0  0  0  0  0  0  0
    2.0701   -1.1104    0.0000 O   0  0  0  0  0  0  0  0  0  0  0  0
    1.3556   -1.5229    0.0000 C   0  0  0  0  0  0  0  0  0  0  0  0
   -1.8659   -1.4124    0.0000 C   0  0  0  0  0  0  0  0  0  0  0  0
   -2.6909   -1.4124    0.0000 C   0  0  0  0  0  0  0  0  0  0  0  0
   -3.1034   -2.1269    0.0000 O   0  0  0  0  0  0  0  0  0  0  0  0
   -2.6909   -2.8414    0.0000 C   0  0  0  0  0  0  0  0  0  0  0  0
   -1.8659   -2.8414    0.0000 C   0  0  0  0  0  0  0  0  0  0  0  0
   -3.1034   -3.5558    0.0000 C   0  0  0  0  0  0  0  0  0  0  0  0
   -3.8179   -3.1433    0.0000 F   0  0  0  0  0  0  0  0  0  0  0  0
   -2.3890   -3.9683    0.0000 F   0  0  0  0  0  0  0  0  0  0  0  0
   -3.5159   -4.2703    0.0000 F   0  0  0  0  0  0  0  0  0  0  0  0
  1  2  1  0  0  0  0
  2  3  1  0  0  0  0
  3  4  4  0  0  0  0
  4  5  4  0  0  0  0
  5  6  4  0  0  0  0
  6  7  4  0  0  0  0
  7  8  1  0  0  0  0
  7  9  4  0  0  0  0
  3  9  4  0  0  0  0
  9 10  1  0  0  0  0
 10 11  1  0  0  0  0
 11 12  2  0  0  0  0
 11 13  1  0  0  0  0
 13 14  4  0  0  0  0
 14 15  4  0  0  0  0
 15 16  1  0  0  0  0
 15 17  4  0  0  0  0
 17 18  1  0  0  0  0
 18 19  4  0  0  0  0
 19 20  4  0  0  0  0
 20 21  4  0  0  0  0
 21 22  4  0  0  0  0
 18 22  4  0  0  0  0
 22 23  2  0  0  0  0
 21 24  1  0  0  0  0
 24 25  1  0  0  0  0
 25 26  1  0  0  0  0
 26 27  1  0  0  0  0
 20 27  1  0  0  0  0
 17 28  4  0  0  0  0
 28 29  4  0  0  0  0
 13 29  4  0  0  0  0
 29 30  1  0  0  0  0
 30 31  1  0  0  0  0
 31 32  1  0  0  0  0
 31 33  1  0  0  0  0
 33 34  1  0  0  0  0
 33 35  1  0  0  0  0
 33 36  1  0  0  0  0
M  END
> <IC50(uM)>
0.1

> <Outcome>
1.0

> <BindingDB ID>
1020597

> <BindingDB MonomerID>
490536

> <BindingDB Ligand Name>
5-fluoro-N-(2-methoxy-4-methylpyridin-3-yl)-4-(3-oxo-5,6-dihydro-3H-[1,2,4]triazolo[3,4-c]-[1,4]oxazin-2(8H)-yl)-2-{[(2S)-1,1,1-trifluoropropan-2-yl]oxy}benzamide::US10968216, Example 204

> <Curation/DataSource>
US Patent

> <Article DOI>
?

> <PMID>
?

> <Patent Number>
US10968216

> <Authors>
Gradl, SN; Nguyen, D; Eis, K; Gunther, J; Stellfeld, T; Janzer, A; Christian, S; Mueller, T; Sheikh, SE; Zhou, HJ; Zhao, C; Sykes, DB; Ferrara, SJ; Liu, K; Herbert, SA; Merz, C; Niehues, M; Nising, CF; Schafer, M; Zimmermann, K; Knablein, J; Thede, K; Faupel, T

> <Link to Ligand in BindingDB>
http://www.bindingdb.org/bind/chemsearch/marvin/MolStructure.jsp?monomerid=490536

> <Link to Ligand-Target Pair in BindingDB>
http://www.bindingdb.org/jsp/dbsearch/PrimarySearch_ki.jsp?energyterm=kJ/mole&tag=r21&monomerid=490536&enzyme=Dihydroorotate+dehydrogenase&column=ki&startPg=0&Increment=50&submit=Search

> <PubChem CID>
134474054

> <PubChem SID>
447117262

$$$$

  Mrv2115 07222212352D          

 19 20  0  0  0  0            999 V2000
    0.6078    1.1759    0.0000 C   0  0  0  0  0  0  0  0  0  0  0  0
    1.3222    0.7634    0.0000 C   0  0  0  0  0  0  0  0  0  0  0  0
    1.3222   -0.0616    0.0000 O   0  0  0  0  0  0  0  0  0  0  0  0
    2.0367   -0.4741    0.0000 C   0  0  0  0  0  0  0  0  0  0  0  0
    2.7512   -0.0616    0.0000 O   0  0  0  0  0  0  0  0  0  0  0  0
    2.0367   -1.2991    0.0000 C   0  0  0  0  0  0  0  0  0  0  0  0
    2.7041   -1.7840    0.0000 S   0  0  0  0  0  0  0  0  0  0  0  0
    2.4492   -2.5687    0.0000 C   0  0  0  0  0  0  0  0  0  0  0  0
    2.9341   -3.2361    0.0000 N   0  0  0  0  0  0  0  0  0  0  0  0
    2.5986   -3.9898    0.0000 C   0  0  0  0  0  0  0  0  0  0  0  0
    3.0835   -4.6572    0.0000 C   0  0  0  0  0  0  0  0  0  0  0  0
    2.7479   -5.4109    0.0000 C   0  0  0  0  0  0  0  0  0  0  0  0
    1.9275   -5.4971    0.0000 C   0  0  0  0  0  0  0  0  0  0  0  0
    1.5919   -6.2508    0.0000 Br  0  0  0  0  0  0  0  0  0  0  0  0
    1.4425   -4.8297    0.0000 C   0  0  0  0  0  0  0  0  0  0  0  0
    1.7781   -4.0760    0.0000 C   0  0  0  0  0  0  0  0  0  0  0  0
    1.6242   -2.5687    0.0000 N   0  0  0  0  0  0  0  0  0  0  0  0
    1.3693   -1.7840    0.0000 C   0  0  0  0  0  0  0  0  0  0  0  0
    0.5846   -1.5291    0.0000 C   0  0  0  0  0  0  0  0  0  0  0  0
  1  2  1  0  0  0  0
  2  3  1  0  0  0  0
  3  4  1  0  0  0  0
  4  5  2  0  0  0  0
  4  6  1  0  0  0  0
  6  7  4  0  0  0  0
  7  8  4  0  0  0  0
  8  9  1  0  0  0  0
  9 10  1  0  0  0  0
 10 11  4  0  0  0  0
 11 12  4  0  0  0  0
 12 13  4  0  0  0  0
 13 14  1  0  0  0  0
 13 15  4  0  0  0  0
 15 16  4  0  0  0  0
 10 16  4  0  0  0  0
  8 17  4  0  0  0  0
 17 18  4  0  0  0  0
  6 18  4  0  0  0  0
 18 19  1  0  0  0  0
M  END
> <IC50(uM)>
9.074

> <Outcome>
0.0

> <BindingDB ID>
50312474

> <BindingDB MonomerID>
50071786

> <BindingDB Ligand Name>
CHEMBL1460972

> <Curation/DataSource>
ChEMBL

> <Article DOI>
10.1021/jm501127s

> <PMID>
25580811

> <Patent Number>
?

> <Authors>
Zhu, J; Han, L; Diao, Y; Ren, X; Xu, M; Xu, L; Li, S; Li, Q; Dong, D; Huang, J; Liu, X; Zhao, Z; Wang, R; Zhu, L; Xu, Y; Qian, X; Li, H

> <Link to Ligand in BindingDB>
http://www.bindingdb.org/bind/chemsearch/marvin/MolStructure.jsp?monomerid=50071786

> <Link to Ligand-Target Pair in BindingDB>
http://www.bindingdb.org/jsp/dbsearch/PrimarySearch_ki.jsp?energyterm=kJ/mole&tag=r21&monomerid=50071786&enzyme=Dihydroorotate+dehydrogenase&column=ki&startPg=0&Increment=50&submit=Search

> <PubChem CID>
947453

> <PubChem SID>
103965496

$$$$

  Mrv2115 07222212352D          

 28 31  0  0  0  0            999 V2000
    4.0668    2.3479    0.0000 C   0  0  0  0  0  0  0  0  0  0  0  0
    3.3523    1.9354    0.0000 C   0  0  0  0  0  0  0  0  0  0  0  0
    3.3523    1.1104    0.0000 C   0  0  0  0  0  0  0  0  0  0  0  0
    2.6378    0.6979    0.0000 C   0  0  0  0  0  0  0  0  0  0  0  0
    2.6378   -0.1271    0.0000 C   0  0  0  0  0  0  0  0  0  0  0  0
    2.6378   -0.9521    0.0000 N   0  0  0  0  0  0  0  0  0  0  0  0
    1.9233    1.1104    0.0000 C   0  0  0  0  0  0  0  0  0  0  0  0
    1.1387    0.8555    0.0000 N   0  0  0  0  0  0  0  0  0  0  0  0
    0.6538    1.5229    0.0000 C   0  0  0  0  0  0  0  0  0  0  0  0
   -0.1712    1.5229    0.0000 C   0  0  0  0  0  0  0  0  0  0  0  0
   -0.5837    0.8085    0.0000 C   0  0  0  0  0  0  0  0  0  0  0  0
   -0.1712    0.0940    0.0000 F   0  0  0  0  0  0  0  0  0  0  0  0
   -1.4087    0.8085    0.0000 C   0  0  0  0  0  0  0  0  0  0  0  0
   -1.8212    0.0940    0.0000 F   0  0  0  0  0  0  0  0  0  0  0  0
   -1.8212    1.5229    0.0000 C   0  0  0  0  0  0  0  0  0  0  0  0
   -2.6462    1.5229    0.0000 C   0  0  0  0  0  0  0  0  0  0  0  0
   -3.0587    0.8085    0.0000 C   0  0  0  0  0  0  0  0  0  0  0  0
   -3.8837    0.8085    0.0000 C   0  0  0  0  0  0  0  0  0  0  0  0
   -4.2962    1.5229    0.0000 C   0  0  0  0  0  0  0  0  0  0  0  0
   -3.8837    2.2374    0.0000 C   0  0  0  0  0  0  0  0  0  0  0  0
   -3.0587    2.2374    0.0000 C   0  0  0  0  0  0  0  0  0  0  0  0
   -1.4087    2.2374    0.0000 C   0  0  0  0  0  0  0  0  0  0  0  0
   -1.8212    2.9519    0.0000 F   0  0  0  0  0  0  0  0  0  0  0  0
   -0.5837    2.2374    0.0000 C   0  0  0  0  0  0  0  0  0  0  0  0
   -0.1712    2.9519    0.0000 F   0  0  0  0  0  0  0  0  0  0  0  0
    1.1387    2.1904    0.0000 N   0  0  0  0  0  0  0  0  0  0  0  0
    1.9233    1.9354    0.0000 C   0  0  0  0  0  0  0  0  0  0  0  0
    2.6378    2.3479    0.0000 C   0  0  0  0  0  0  0  0  0  0  0  0
  1  2  1  0  0  0  0
  2  3  4  0  0  0  0
  3  4  4  0  0  0  0
  4  5  1  0  0  0  0
  5  6  3  0  0  0  0
  4  7  4  0  0  0  0
  7  8  4  0  0  0  0
  8  9  4  0  0  0  0
  9 10  1  0  0  0  0
 10 11  4  0  0  0  0
 11 12  1  0  0  0  0
 11 13  4  0  0  0  0
 13 14  1  0  0  0  0
 13 15  4  0  0  0  0
 15 16  1  0  0  0  0
 16 17  4  0  0  0  0
 17 18  4  0  0  0  0
 18 19  4  0  0  0  0
 19 20  4  0  0  0  0
 20 21  4  0  0  0  0
 16 21  4  0  0  0  0
 15 22  4  0  0  0  0
 22 23  1  0  0  0  0
 22 24  4  0  0  0  0
 10 24  4  0  0  0  0
 24 25  1  0  0  0  0
  9 26  4  0  0  0  0
 26 27  4  0  0  0  0
  7 27  4  0  0  0  0
 27 28  4  0  0  0  0
  2 28  4  0  0  0  0
M  STY  1   1 DAT
M  SAL   1  1  26
M  SDT   1 MRV_IMPLICIT_H                                        
M  SDD   1     0.5304   -0.4125    DR    ALL  0       0  
M  SED   1 IMPL_H1
M  END
> <IC50(uM)>
1.65

> <Outcome>
0.0

> <BindingDB ID>
297811

> <BindingDB MonomerID>
155467

> <BindingDB Ligand Name>
US9006454, I109

> <Curation/DataSource>
US Patent

> <Article DOI>
?

> <PMID>
?

> <Patent Number>
US9006454

> <Authors>
Thunuguntla, SS; Subramanya, H; Kunnam, SR; Sanivaru Vijay, SR; Bingi, C; Kusanur, R; Schwarz, M; Arlt, M

> <Link to Ligand in BindingDB>
http://www.bindingdb.org/bind/chemsearch/marvin/MolStructure.jsp?monomerid=155467

> <Link to Ligand-Target Pair in BindingDB>
http://www.bindingdb.org/jsp/dbsearch/PrimarySearch_ki.jsp?energyterm=kJ/mole&tag=r21&monomerid=155467&enzyme=Dihydroorotate+dehydrogenase&column=ki&startPg=0&Increment=50&submit=Search

> <PubChem CID>
58073769

> <PubChem SID>
253658404

$$$$

  Mrv2115 07222212352D          

 36 38  0  0  0  0            999 V2000
    2.1434   -3.7125    0.0000 C   0  0  0  0  0  0  0  0  0  0  0  0
    1.4289   -4.1250    0.0000 C   0  0  0  0  0  0  0  0  0  0  0  0
    1.4289   -4.9500    0.0000 N   0  0  0  0  0  0  0  0  0  0  0  0
    0.7615   -5.4349    0.0000 C   0  0  0  0  0  0  0  0  0  0  0  0
   -0.0231   -5.1800    0.0000 C   0  0  0  0  0  0  0  0  0  0  0  0
   -0.1946   -4.3730    0.0000 O   0  0  0  0  0  0  0  0  0  0  0  0
   -0.6362   -5.7320    0.0000 O   0  0  0  0  0  0  0  0  0  0  0  0
    1.0164   -6.2195    0.0000 N   0  0  0  0  0  0  0  0  0  0  0  0
    1.8414   -6.2195    0.0000 N   0  0  0  0  0  0  0  0  0  0  0  0
    2.3264   -6.8870    0.0000 C   0  0  0  0  0  0  0  0  0  0  0  0
    3.1468   -6.8007    0.0000 C   0  0  0  0  0  0  0  0  0  0  0  0
    3.6318   -7.4682    0.0000 C   0  0  0  0  0  0  0  0  0  0  0  0
    4.4522   -7.3820    0.0000 O   0  0  0  0  0  0  0  0  0  0  0  0
    4.7878   -6.6283    0.0000 C   0  0  0  0  0  0  0  0  0  0  0  0
    4.3029   -5.9608    0.0000 C   0  0  0  0  0  0  0  0  0  0  0  0
    5.6083   -6.5420    0.0000 C   0  0  0  0  0  0  0  0  0  0  0  0
    5.6945   -7.3625    0.0000 C   0  0  0  0  0  0  0  0  0  0  0  0
    5.5221   -5.7216    0.0000 F   0  0  0  0  0  0  0  0  0  0  0  0
    6.4288   -6.4558    0.0000 F   0  0  0  0  0  0  0  0  0  0  0  0
    3.2962   -8.2219    0.0000 C   0  0  0  0  0  0  0  0  0  0  0  0
    3.7811   -8.8893    0.0000 C   0  0  0  0  0  0  0  0  0  0  0  0
    3.4456   -9.6430    0.0000 O   0  0  0  0  0  0  0  0  0  0  0  0
    4.6016   -8.8031    0.0000 N   0  0  0  0  0  0  0  0  0  0  0  0
    5.0865   -9.4705    0.0000 C   0  0  0  0  0  0  0  0  0  0  0  0
    5.9070   -9.3843    0.0000 C   0  0  0  0  0  0  0  0  0  0  0  0
    6.2426   -8.6306    0.0000 F   0  0  0  0  0  0  0  0  0  0  0  0
    6.3919  -10.0517    0.0000 C   0  0  0  0  0  0  0  0  0  0  0  0
    6.0564  -10.8054    0.0000 C   0  0  0  0  0  0  0  0  0  0  0  0
    5.2359  -10.8916    0.0000 C   0  0  0  0  0  0  0  0  0  0  0  0
    4.7510  -10.2242    0.0000 C   0  0  0  0  0  0  0  0  0  0  0  0
    3.9305  -10.3104    0.0000 Cl  0  0  0  0  0  0  0  0  0  0  0  0
    2.4757   -8.3081    0.0000 C   0  0  0  0  0  0  0  0  0  0  0  0
    1.9908   -7.6407    0.0000 C   0  0  0  0  0  0  0  0  0  0  0  0
    1.1703   -7.7269    0.0000 F   0  0  0  0  0  0  0  0  0  0  0  0
    2.0964   -5.4349    0.0000 C   0  0  0  0  0  0  0  0  0  0  0  0
    2.8810   -5.1800    0.0000 O   0  0  0  0  0  0  0  0  0  0  0  0
  1  2  1  0  0  0  0
  2  3  1  0  0  0  0
  3  4  4  0  0  0  0
  4  5  1  0  0  0  0
  5  6  2  0  0  0  0
  5  7  1  0  0  0  0
  4  8  4  0  0  0  0
  8  9  4  0  0  0  0
  9 10  1  0  0  0  0
 10 11  4  0  0  0  0
 11 12  4  0  0  0  0
 12 13  1  0  0  0  0
 13 14  1  0  0  0  0
 14 15  1  0  0  0  0
 14 16  1  0  0  0  0
 16 17  1  0  0  0  0
 16 18  1  0  0  0  0
 16 19  1  0  0  0  0
 12 20  4  0  0  0  0
 20 21  1  0  0  0  0
 21 22  2  0  0  0  0
 21 23  1  0  0  0  0
 23 24  1  0  0  0  0
 24 25  4  0  0  0  0
 25 26  1  0  0  0  0
 25 27  4  0  0  0  0
 27 28  4  0  0  0  0
 28 29  4  0  0  0  0
 29 30  4  0  0  0  0
 24 30  4  0  0  0  0
 30 31  1  0  0  0  0
 20 32  4  0  0  0  0
 32 33  4  0  0  0  0
 10 33  4  0  0  0  0
 33 34  1  0  0  0  0
  9 35  4  0  0  0  0
  3 35  4  0  0  0  0
 35 36  2  0  0  0  0
M  END
> <IC50(uM)>
0.007

> <Outcome>
1.0

> <BindingDB ID>
972684; 1098838

> <BindingDB MonomerID>
470562

> <BindingDB Ligand Name>
1-(4-[(2-chloro-6-fluorophenyl)carbamoyl]-5-{[3,3-difluorobutan-2-yl]oxy}-2-fluorophenyl)-4-ethyl-5-oxo-4,5-dihydro-1H-1,2,4-triazole-3-carboxylic acid (Racemic)::US10815215, Example 222; 1-(4-[(2-chloro-6-fluorophenyl)carbamoyl]-5-{[3,3-difluorobutan-2-yl]oxy}-2-fluorophenyl)-4-ethyl-5-oxo-4,5-dihydro-1H-1,2,4-triazole-3-carboxylic acid (Racemic)::US10815215, Example 222::US11130745, Example 222

> <Curation/DataSource>
US Patent

> <Article DOI>
?

> <PMID>
?

> <Patent Number>
US10815215; US11130745

> <Authors>
Gradl, SN; Nguyen, D; Eis, K; Gunther, J; Stellfeld, T; Janzer, A; Christian, S; Muller, T; Sheikh, SE; Zhou, HJ; Zhao, C; Sykes, DB; Ferrara, SJ; Liu, K; Krober, M; Merz, C; Niehues, M; Schafer, M; Zimmermann, K; Nising, CF; Gradl, SN; Nguyen, D; Eis, K; Gunther, J; Stellfeld, T; Janzer, A; Christian, S; Muller, T; Sheikh, SE; Sykes, DB; Ferrara, SJ; Krober, M; Merz, C; Niehues, M; Schafer, M; Zimmermann, K; Nising, CF

> <Link to Ligand in BindingDB>
http://www.bindingdb.org/bind/chemsearch/marvin/MolStructure.jsp?monomerid=470562

> <Link to Ligand-Target Pair in BindingDB>
http://www.bindingdb.org/jsp/dbsearch/PrimarySearch_ki.jsp?energyterm=kJ/mole&tag=r21&monomerid=470562&enzyme=Dihydroorotate+dehydrogenase&column=ki&startPg=0&Increment=50&submit=Search

> <PubChem CID>
146483849

> <PubChem SID>
441609738

$$$$

  Mrv2115 07222212352D          

 25 27  0  0  0  0            999 V2000
    1.1202   -3.2039    0.0000 C   0  0  0  0  0  0  0  0  0  0  0  0
    1.1202   -4.0289    0.0000 C   0  0  0  0  0  0  0  0  0  0  0  0
    0.4058   -4.4414    0.0000 C   0  0  0  0  0  0  0  0  0  0  0  0
    0.4058   -5.2664    0.0000 C   0  0  0  0  0  0  0  0  0  0  0  0
    1.1202   -5.6789    0.0000 C   0  0  0  0  0  0  0  0  0  0  0  0
    1.1202   -6.5039    0.0000 N   0  0  0  0  0  0  0  0  0  0  0  0
    0.4058   -6.9164    0.0000 C   0  0  0  0  0  0  0  0  0  0  0  0
    0.4058   -7.7414    0.0000 C   0  0  0  0  0  0  0  0  0  0  0  0
   -0.3087   -8.1539    0.0000 N   0  0  0  0  0  0  0  0  0  0  0  0
   -1.0232   -7.7414    0.0000 C   0  0  0  0  0  0  0  0  0  0  0  0
   -1.7377   -8.1539    0.0000 N   0  0  0  0  0  0  0  0  0  0  0  0
   -1.6760   -8.9766    0.0000 C   0  0  0  0  0  0  0  0  0  0  0  0
   -2.2808   -9.5378    0.0000 C   0  0  0  0  0  0  0  0  0  0  0  0
   -3.0966   -9.4148    0.0000 C   0  0  0  0  0  0  0  0  0  0  0  0
   -3.5091   -8.7003    0.0000 C   0  0  0  0  0  0  0  0  0  0  0  0
   -3.2077   -7.9324    0.0000 C   0  0  0  0  0  0  0  0  0  0  0  0
   -2.4193   -7.6892    0.0000 C   0  0  0  0  0  0  0  0  0  0  0  0
   -1.0232   -6.9164    0.0000 C   0  0  0  0  0  0  0  0  0  0  0  0
   -1.7377   -6.5039    0.0000 C   0  0  0  0  0  0  0  0  0  0  0  0
   -0.3087   -6.5039    0.0000 C   0  0  0  0  0  0  0  0  0  0  0  0
    1.8347   -5.2664    0.0000 C   0  0  0  0  0  0  0  0  0  0  0  0
    2.5492   -5.6789    0.0000 C   0  0  0  0  0  0  0  0  0  0  0  0
    3.2636   -5.2664    0.0000 O   0  0  0  0  0  0  0  0  0  0  0  0
    2.5492   -6.5039    0.0000 O   0  0  0  0  0  0  0  0  0  0  0  0
    1.8347   -4.4414    0.0000 C   0  0  0  0  0  0  0  0  0  0  0  0
  1  2  1  0  0  0  0
  2  3  4  0  0  0  0
  3  4  4  0  0  0  0
  4  5  4  0  0  0  0
  5  6  1  0  0  0  0
  6  7  1  0  0  0  0
  7  8  4  0  0  0  0
  8  9  4  0  0  0  0
  9 10  4  0  0  0  0
 10 11  1  0  0  0  0
 11 12  1  0  0  0  0
 12 13  1  0  0  0  0
 13 14  1  0  0  0  0
 14 15  1  0  0  0  0
 15 16  1  0  0  0  0
 16 17  1  0  0  0  0
 11 17  1  0  0  0  0
 10 18  4  0  0  0  0
 18 19  1  0  0  0  0
 18 20  4  0  0  0  0
  7 20  4  0  0  0  0
  5 21  4  0  0  0  0
 21 22  1  0  0  0  0
 22 23  2  0  0  0  0
 22 24  1  0  0  0  0
 21 25  4  0  0  0  0
  2 25  4  0  0  0  0
M  END
> <IC50(uM)>
0.119

> <Outcome>
1.0

> <BindingDB ID>
219988

> <BindingDB MonomerID>
102458

> <BindingDB Ligand Name>
US8536165, 31

> <Curation/DataSource>
US Patent

> <Article DOI>
?

> <PMID>
?

> <Patent Number>
US8536165

> <Authors>
Castro Palomino Laria, JC; Terricabras Belart, E; Erra Sola, M; Navarro Romero, E; Fonquerna Pou, S; Cardus Figueras, A; Lozoya Toribio, ME

> <Link to Ligand in BindingDB>
http://www.bindingdb.org/bind/chemsearch/marvin/MolStructure.jsp?monomerid=102458

> <Link to Ligand-Target Pair in BindingDB>
http://www.bindingdb.org/jsp/dbsearch/PrimarySearch_ki.jsp?energyterm=kJ/mole&tag=r21&monomerid=102458&enzyme=Dihydroorotate+dehydrogenase&column=ki&startPg=0&Increment=50&submit=Search

> <PubChem CID>
25187286

> <PubChem SID>
172097749

$$$$

  Mrv2115 07222212352D          

 37 39  0  0  0  0            999 V2000
    2.1434   -2.8875    0.0000 C   0  0  0  0  0  0  0  0  0  0  0  0
    2.1434   -3.7125    0.0000 C   0  0  0  0  0  0  0  0  0  0  0  0
    1.4289   -4.1250    0.0000 C   0  0  0  0  0  0  0  0  0  0  0  0
    1.4289   -4.9500    0.0000 N   0  0  0  0  0  0  0  0  0  0  0  0
    0.7615   -5.4349    0.0000 C   0  0  0  0  0  0  0  0  0  0  0  0
   -0.0231   -5.1800    0.0000 C   0  0  0  0  0  0  0  0  0  0  0  0
   -0.1946   -4.3730    0.0000 O   0  0  0  0  0  0  0  0  0  0  0  0
   -0.6362   -5.7320    0.0000 O   0  0  0  0  0  0  0  0  0  0  0  0
    1.0164   -6.2195    0.0000 N   0  0  0  0  0  0  0  0  0  0  0  0
    1.8414   -6.2195    0.0000 N   0  0  0  0  0  0  0  0  0  0  0  0
    2.3264   -6.8870    0.0000 C   0  0  0  0  0  0  0  0  0  0  0  0
    3.1468   -6.8007    0.0000 C   0  0  0  0  0  0  0  0  0  0  0  0
    3.6318   -7.4682    0.0000 C   0  0  0  0  0  0  0  0  0  0  0  0
    4.4522   -7.3820    0.0000 O   0  0  0  0  0  0  0  0  0  0  0  0
    4.7878   -6.6283    0.0000 C   0  0  0  0  0  0  0  0  0  0  0  0
    4.3029   -5.9608    0.0000 C   0  0  0  0  0  0  0  0  0  0  0  0
    5.6083   -6.5420    0.0000 C   0  0  0  0  0  0  0  0  0  0  0  0
    5.6945   -7.3625    0.0000 F   0  0  0  0  0  0  0  0  0  0  0  0
    5.5221   -5.7216    0.0000 F   0  0  0  0  0  0  0  0  0  0  0  0
    6.4288   -6.4558    0.0000 F   0  0  0  0  0  0  0  0  0  0  0  0
    3.2962   -8.2219    0.0000 C   0  0  0  0  0  0  0  0  0  0  0  0
    3.7811   -8.8893    0.0000 C   0  0  0  0  0  0  0  0  0  0  0  0
    3.4456   -9.6430    0.0000 O   0  0  0  0  0  0  0  0  0  0  0  0
    4.6016   -8.8031    0.0000 N   0  0  0  0  0  0  0  0  0  0  0  0
    5.0865   -9.4705    0.0000 C   0  0  0  0  0  0  0  0  0  0  0  0
    5.9070   -9.3843    0.0000 C   0  0  0  0  0  0  0  0  0  0  0  0
    6.2426   -8.6306    0.0000 F   0  0  0  0  0  0  0  0  0  0  0  0
    6.3919  -10.0517    0.0000 C   0  0  0  0  0  0  0  0  0  0  0  0
    6.0564  -10.8054    0.0000 C   0  0  0  0  0  0  0  0  0  0  0  0
    5.2359  -10.8916    0.0000 C   0  0  0  0  0  0  0  0  0  0  0  0
    4.7510  -10.2242    0.0000 C   0  0  0  0  0  0  0  0  0  0  0  0
    3.9305  -10.3104    0.0000 Cl  0  0  0  0  0  0  0  0  0  0  0  0
    2.4757   -8.3081    0.0000 C   0  0  0  0  0  0  0  0  0  0  0  0
    1.9908   -7.6407    0.0000 C   0  0  0  0  0  0  0  0  0  0  0  0
    1.1703   -7.7269    0.0000 F   0  0  0  0  0  0  0  0  0  0  0  0
    2.0964   -5.4349    0.0000 C   0  0  0  0  0  0  0  0  0  0  0  0
    2.8810   -5.1800    0.0000 O   0  0  0  0  0  0  0  0  0  0  0  0
  1  2  1  0  0  0  0
  2  3  1  0  0  0  0
  3  4  1  0  0  0  0
  4  5  4  0  0  0  0
  5  6  1  0  0  0  0
  6  7  2  0  0  0  0
  6  8  1  0  0  0  0
  5  9  4  0  0  0  0
  9 10  4  0  0  0  0
 10 11  1  0  0  0  0
 11 12  4  0  0  0  0
 12 13  4  0  0  0  0
 13 14  1  0  0  0  0
 14 15  1  0  0  0  0
 15 16  1  0  0  0  0
 15 17  1  0  0  0  0
 17 18  1  0  0  0  0
 17 19  1  0  0  0  0
 17 20  1  0  0  0  0
 13 21  4  0  0  0  0
 21 22  1  0  0  0  0
 22 23  2  0  0  0  0
 22 24  1  0  0  0  0
 24 25  1  0  0  0  0
 25 26  4  0  0  0  0
 26 27  1  0  0  0  0
 26 28  4  0  0  0  0
 28 29  4  0  0  0  0
 29 30  4  0  0  0  0
 30 31  4  0  0  0  0
 25 31  4  0  0  0  0
 31 32  1  0  0  0  0
 21 33  4  0  0  0  0
 33 34  4  0  0  0  0
 11 34  4  0  0  0  0
 34 35  1  0  0  0  0
 10 36  4  0  0  0  0
  4 36  4  0  0  0  0
 36 37  2  0  0  0  0
M  END
> <IC50(uM)>
0.001

> <Outcome>
1.0

> <BindingDB ID>
1098837; 972683

> <BindingDB MonomerID>
470561

> <BindingDB Ligand Name>
1-(4-[(2-chloro-6-fluorophenyl)carbamoyl]-2-fluoro-5-{[(2S)-1,1,1-trifluoropropan-2-yl]oxy}phenyl)-5-oxo-4-propyl-4,5-dihydro-1H-1,2,4-triazole-3-carboxylic acid::US10815215, Example 221::US11130745, Example 221; 1-(4-[(2-chloro-6-fluorophenyl)carbamoyl]-2-fluoro-5-{[(2S)-1,1,1-trifluoropropan-2-yl]oxy}phenyl)-5-oxo-4-propyl-4,5-dihydro-1H-1,2,4-triazole-3-carboxylic acid::US10815215, Example 221

> <Curation/DataSource>
US Patent

> <Article DOI>
?

> <PMID>
?

> <Patent Number>
US11130745; US10815215

> <Authors>
Gradl, SN; Nguyen, D; Eis, K; Gunther, J; Stellfeld, T; Janzer, A; Christian, S; Muller, T; Sheikh, SE; Sykes, DB; Ferrara, SJ; Krober, M; Merz, C; Niehues, M; Schafer, M; Zimmermann, K; Nising, CF; Gradl, SN; Nguyen, D; Eis, K; Gunther, J; Stellfeld, T; Janzer, A; Christian, S; Muller, T; Sheikh, SE; Zhou, HJ; Zhao, C; Sykes, DB; Ferrara, SJ; Liu, K; Krober, M; Merz, C; Niehues, M; Schafer, M; Zimmermann, K; Nising, CF

> <Link to Ligand in BindingDB>
http://www.bindingdb.org/bind/chemsearch/marvin/MolStructure.jsp?monomerid=470561

> <Link to Ligand-Target Pair in BindingDB>
http://www.bindingdb.org/jsp/dbsearch/PrimarySearch_ki.jsp?energyterm=kJ/mole&tag=r21&monomerid=470561&enzyme=Dihydroorotate+dehydrogenase&column=ki&startPg=0&Increment=50&submit=Search

> <PubChem CID>
134470198

> <PubChem SID>
441609737

$$$$

  Mrv2115 07222212352D          

 31 34  0  0  0  0            999 V2000
    4.0668    2.3479    0.0000 C   0  0  0  0  0  0  0  0  0  0  0  0
    3.3523    1.9354    0.0000 C   0  0  0  0  0  0  0  0  0  0  0  0
    3.3523    1.1104    0.0000 C   0  0  0  0  0  0  0  0  0  0  0  0
    2.6378    0.6979    0.0000 C   0  0  0  0  0  0  0  0  0  0  0  0
    2.6378   -0.1271    0.0000 C   0  0  0  0  0  0  0  0  0  0  0  0
    1.9233   -0.5396    0.0000 O   0  0  0  0  0  0  0  0  0  0  0  0
    3.3523   -0.5396    0.0000 O   0  0  0  0  0  0  0  0  0  0  0  0
    1.9233    1.1104    0.0000 C   0  0  0  0  0  0  0  0  0  0  0  0
    1.1387    0.8555    0.0000 N   0  0  0  0  0  0  0  0  0  0  0  0
    0.6538    1.5229    0.0000 C   0  0  0  0  0  0  0  0  0  0  0  0
   -0.1712    1.5229    0.0000 C   0  0  0  0  0  0  0  0  0  0  0  0
   -0.5837    0.8085    0.0000 C   0  0  0  0  0  0  0  0  0  0  0  0
   -0.1712    0.0940    0.0000 F   0  0  0  0  0  0  0  0  0  0  0  0
   -1.4087    0.8085    0.0000 C   0  0  0  0  0  0  0  0  0  0  0  0
   -1.8212    0.0940    0.0000 F   0  0  0  0  0  0  0  0  0  0  0  0
   -1.8212    1.5229    0.0000 C   0  0  0  0  0  0  0  0  0  0  0  0
   -2.6462    1.5229    0.0000 C   0  0  0  0  0  0  0  0  0  0  0  0
   -3.0587    0.8085    0.0000 C   0  0  0  0  0  0  0  0  0  0  0  0
   -3.8837    0.8085    0.0000 C   0  0  0  0  0  0  0  0  0  0  0  0
   -4.2962    0.0940    0.0000 F   0  0  0  0  0  0  0  0  0  0  0  0
   -4.2962    1.5229    0.0000 C   0  0  0  0  0  0  0  0  0  0  0  0
   -3.8837    2.2374    0.0000 C   0  0  0  0  0  0  0  0  0  0  0  0
   -4.2962    2.9519    0.0000 F   0  0  0  0  0  0  0  0  0  0  0  0
   -3.0587    2.2374    0.0000 C   0  0  0  0  0  0  0  0  0  0  0  0
   -1.4087    2.2374    0.0000 C   0  0  0  0  0  0  0  0  0  0  0  0
   -1.8212    2.9519    0.0000 F   0  0  0  0  0  0  0  0  0  0  0  0
   -0.5837    2.2374    0.0000 C   0  0  0  0  0  0  0  0  0  0  0  0
   -0.1712    2.9519    0.0000 F   0  0  0  0  0  0  0  0  0  0  0  0
    1.1387    2.1904    0.0000 N   0  0  0  0  0  0  0  0  0  0  0  0
    1.9233    1.9354    0.0000 C   0  0  0  0  0  0  0  0  0  0  0  0
    2.6378    2.3479    0.0000 C   0  0  0  0  0  0  0  0  0  0  0  0
  1  2  1  0  0  0  0
  2  3  4  0  0  0  0
  3  4  4  0  0  0  0
  4  5  1  0  0  0  0
  5  6  2  0  0  0  0
  5  7  1  0  0  0  0
  4  8  4  0  0  0  0
  8  9  4  0  0  0  0
  9 10  4  0  0  0  0
 10 11  1  0  0  0  0
 11 12  4  0  0  0  0
 12 13  1  0  0  0  0
 12 14  4  0  0  0  0
 14 15  1  0  0  0  0
 14 16  4  0  0  0  0
 16 17  1  0  0  0  0
 17 18  4  0  0  0  0
 18 19  4  0  0  0  0
 19 20  1  0  0  0  0
 19 21  4  0  0  0  0
 21 22  4  0  0  0  0
 22 23  1  0  0  0  0
 22 24  4  0  0  0  0
 17 24  4  0  0  0  0
 16 25  4  0  0  0  0
 25 26  1  0  0  0  0
 25 27  4  0  0  0  0
 11 27  4  0  0  0  0
 27 28  1  0  0  0  0
 10 29  4  0  0  0  0
 29 30  4  0  0  0  0
  8 30  4  0  0  0  0
 30 31  4  0  0  0  0
  2 31  4  0  0  0  0
M  STY  1   1 DAT
M  SAL   1  1  29
M  SDT   1 MRV_IMPLICIT_H                                        
M  SDD   1     0.5304   -0.4125    DR    ALL  0       0  
M  SED   1 IMPL_H1
M  END
> <IC50(uM)>
0.021

> <Outcome>
1.0

> <BindingDB ID>
297848

> <BindingDB MonomerID>
155504

> <BindingDB Ligand Name>
US9006454, I146

> <Curation/DataSource>
US Patent

> <Article DOI>
?

> <PMID>
?

> <Patent Number>
US9006454

> <Authors>
Thunuguntla, SS; Subramanya, H; Kunnam, SR; Sanivaru Vijay, SR; Bingi, C; Kusanur, R; Schwarz, M; Arlt, M

> <Link to Ligand in BindingDB>
http://www.bindingdb.org/bind/chemsearch/marvin/MolStructure.jsp?monomerid=155504

> <Link to Ligand-Target Pair in BindingDB>
http://www.bindingdb.org/jsp/dbsearch/PrimarySearch_ki.jsp?energyterm=kJ/mole&tag=r21&monomerid=155504&enzyme=Dihydroorotate+dehydrogenase&column=ki&startPg=0&Increment=50&submit=Search

> <PubChem CID>
58073776

> <PubChem SID>
253658441

$$$$

  Mrv2115 07222212352D          

 26 28  0  0  0  0            999 V2000
    2.1434   -0.4125    0.0000 C   0  0  0  0  0  0  0  0  0  0  0  0
    1.4289   -0.0000    0.0000 C   0  0  0  0  0  0  0  0  0  0  0  0
    0.7145   -0.4125    0.0000 N   0  0  0  0  0  0  0  0  0  0  0  0
    0.0000    0.0000    0.0000 N   0  0  0  0  0  0  0  0  0  0  0  0
   -0.7145   -0.4125    0.0000 C   0  0  0  0  0  0  0  0  0  0  0  0
   -1.4289    0.0000    0.0000 C   0  0  0  0  0  0  0  0  0  0  0  0
   -2.1434   -0.4125    0.0000 C   0  0  0  0  0  0  0  0  0  0  0  0
   -2.8579    0.0000    0.0000 C   0  0  0  0  0  0  0  0  0  0  0  0
   -2.8579    0.8250    0.0000 C   0  0  0  0  0  0  0  0  0  0  0  0
   -2.1434    1.2375    0.0000 C   0  0  0  0  0  0  0  0  0  0  0  0
   -1.4289    0.8250    0.0000 C   0  0  0  0  0  0  0  0  0  0  0  0
   -0.7145    1.2375    0.0000 C   0  0  0  0  0  0  0  0  0  0  0  0
    0.0000    0.8250    0.0000 O   0  0  0  0  0  0  0  0  0  0  0  0
   -0.7145    2.0625    0.0000 O   0  0  0  0  0  0  0  0  0  0  0  0
    0.7145   -1.2375    0.0000 C   0  0  0  0  0  0  0  0  0  0  0  0
    1.3819   -1.7224    0.0000 N   0  0  0  0  0  0  0  0  0  0  0  0
    1.1270   -2.5070    0.0000 C   0  0  0  0  0  0  0  0  0  0  0  0
    1.6119   -3.1745    0.0000 C   0  0  0  0  0  0  0  0  0  0  0  0
    2.4324   -3.0882    0.0000 C   0  0  0  0  0  0  0  0  0  0  0  0
    2.9173   -3.7557    0.0000 C   0  0  0  0  0  0  0  0  0  0  0  0
    2.5817   -4.5094    0.0000 C   0  0  0  0  0  0  0  0  0  0  0  0
    1.7613   -4.5956    0.0000 C   0  0  0  0  0  0  0  0  0  0  0  0
    1.2763   -3.9282    0.0000 C   0  0  0  0  0  0  0  0  0  0  0  0
    0.4559   -4.0144    0.0000 Cl  0  0  0  0  0  0  0  0  0  0  0  0
    0.3020   -2.5070    0.0000 C   0  0  0  0  0  0  0  0  0  0  0  0
    0.0470   -1.7224    0.0000 S   0  0  0  0  0  0  0  0  0  0  0  0
  1  2  1  0  0  0  0
  2  3  1  0  0  0  0
  3  4  1  0  0  0  0
  4  5  2  0  0  0  0
  5  6  1  0  0  0  0
  6  7  4  0  0  0  0
  7  8  4  0  0  0  0
  8  9  4  0  0  0  0
  9 10  4  0  0  0  0
 10 11  4  0  0  0  0
  6 11  4  0  0  0  0
 11 12  1  0  0  0  0
 12 13  2  0  0  0  0
 12 14  1  0  0  0  0
  3 15  1  0  0  0  0
 15 16  4  0  0  0  0
 16 17  4  0  0  0  0
 17 18  1  0  0  0  0
 18 19  4  0  0  0  0
 19 20  4  0  0  0  0
 20 21  4  0  0  0  0
 21 22  4  0  0  0  0
 22 23  4  0  0  0  0
 18 23  4  0  0  0  0
 23 24  1  0  0  0  0
 17 25  4  0  0  0  0
 25 26  4  0  0  0  0
 15 26  4  0  0  0  0
M  END
> <IC50(uM)>
0.0587

> <Outcome>
1.0

> <BindingDB ID>
1001111

> <BindingDB MonomerID>
482797

> <BindingDB Ligand Name>
US10919869, No.  2

> <Curation/DataSource>
US Patent

> <Article DOI>
?

> <PMID>
?

> <Patent Number>
US10919869

> <Authors>
Li, H; Xu, Y; Wang, R; Zhao, Z; Song, W; Xu, L

> <Link to Ligand in BindingDB>
http://www.bindingdb.org/bind/chemsearch/marvin/MolStructure.jsp?monomerid=482797

> <Link to Ligand-Target Pair in BindingDB>
http://www.bindingdb.org/jsp/dbsearch/PrimarySearch_ki.jsp?energyterm=kJ/mole&tag=r21&monomerid=482797&enzyme=Dihydroorotate+dehydrogenase&column=ki&startPg=0&Increment=50&submit=Search

> <PubChem CID>
132157940

> <PubChem SID>
443551938

$$$$

  Mrv2115 07222212352D          

 22 24  0  0  0  0            999 V2000
   -2.1434   -3.7125    0.0000 C   0  0  0  0  0  0  0  0  0  0  0  0
   -2.1434   -2.8875    0.0000 C   0  0  0  0  0  0  0  0  0  0  0  0
   -2.8579   -2.4750    0.0000 C   0  0  0  0  0  0  0  0  0  0  0  0
   -1.4289   -2.4750    0.0000 C   0  0  0  0  0  0  0  0  0  0  0  0
   -1.4289   -1.6500    0.0000 C   0  0  0  0  0  0  0  0  0  0  0  0
   -0.7145   -1.2375    0.0000 C   0  0  0  0  0  0  0  0  0  0  0  0
    0.0000   -1.6500    0.0000 C   0  0  0  0  0  0  0  0  0  0  0  0
    0.7145   -1.2375    0.0000 C   0  0  0  0  0  0  0  0  0  0  0  0
    0.7145   -0.4125    0.0000 C   0  0  0  0  0  0  0  0  0  0  0  0
    1.4289    0.0000    0.0000 C   0  0  0  0  0  0  0  0  0  0  0  0
    1.4289    0.8250    0.0000 C   0  0  0  0  0  0  0  0  0  0  0  0
    2.1434    1.2375    0.0000 O   0  0  0  0  0  0  0  0  0  0  0  0
    0.7145    1.2375    0.0000 O   0  0  0  0  0  0  0  0  0  0  0  0
    2.1434   -0.4125    0.0000 C   0  0  0  0  0  0  0  0  0  0  0  0
    2.8579    0.0000    0.0000 C   0  0  0  0  0  0  0  0  0  0  0  0
    3.5724   -0.4125    0.0000 C   0  0  0  0  0  0  0  0  0  0  0  0
    3.5724   -1.2375    0.0000 C   0  0  0  0  0  0  0  0  0  0  0  0
    2.8579   -1.6500    0.0000 C   0  0  0  0  0  0  0  0  0  0  0  0
    2.1434   -1.2375    0.0000 C   0  0  0  0  0  0  0  0  0  0  0  0
    1.4289   -1.6500    0.0000 N   0  0  0  0  0  0  0  0  0  0  0  0
    0.0000   -2.4750    0.0000 C   0  0  0  0  0  0  0  0  0  0  0  0
   -0.7145   -2.8875    0.0000 C   0  0  0  0  0  0  0  0  0  0  0  0
  1  2  1  0  0  0  0
  2  3  1  0  0  0  0
  2  4  1  0  0  0  0
  4  5  4  0  0  0  0
  5  6  4  0  0  0  0
  6  7  4  0  0  0  0
  7  8  1  0  0  0  0
  8  9  4  0  0  0  0
  9 10  4  0  0  0  0
 10 11  1  0  0  0  0
 11 12  2  0  0  0  0
 11 13  1  0  0  0  0
 10 14  4  0  0  0  0
 14 15  4  0  0  0  0
 15 16  4  0  0  0  0
 16 17  4  0  0  0  0
 17 18  4  0  0  0  0
 18 19  4  0  0  0  0
 14 19  4  0  0  0  0
 19 20  4  0  0  0  0
  8 20  4  0  0  0  0
  7 21  4  0  0  0  0
 21 22  4  0  0  0  0
  4 22  4  0  0  0  0
M  END
> <IC50(uM)>
3.41

> <Outcome>
0.0

> <BindingDB ID>
51126176

> <BindingDB MonomerID>
50461863

> <BindingDB Ligand Name>
CHEMBL4229141

> <Curation/DataSource>
ChEMBL

> <Article DOI>
10.1021/acs.jmedchem.7b01862

> <PMID>
29727569

> <Patent Number>
?

> <Authors>
Madak, JT; Cuthbertson, CR; Miyata, Y; Tamura, S; Petrunak, EM; Stuckey, JA; Han, Y; He, M; Sun, D; Showalter, HD; Neamati, N

> <Link to Ligand in BindingDB>
http://www.bindingdb.org/bind/chemsearch/marvin/MolStructure.jsp?monomerid=50461863

> <Link to Ligand-Target Pair in BindingDB>
http://www.bindingdb.org/jsp/dbsearch/PrimarySearch_ki.jsp?energyterm=kJ/mole&tag=r21&monomerid=50461863&enzyme=Dihydroorotate+dehydrogenase&column=ki&startPg=0&Increment=50&submit=Search

> <PubChem CID>
623973

> <PubChem SID>
433929128

$$$$

  Mrv2115 07222212352D          

 29 32  0  0  0  0            999 V2000
    1.8500    2.0625    0.0000 O   0  0  0  0  0  0  0  0  0  0  0  0
    2.5645    2.4750    0.0000 C   0  0  0  0  0  0  0  0  0  0  0  0
    3.2789    2.0625    0.0000 N   0  0  0  0  0  0  0  0  0  0  0  0
    3.2789    1.2375    0.0000 C   0  0  0  0  0  0  0  0  0  0  0  0
    3.9934    0.8250    0.0000 C   0  0  0  0  0  0  0  0  0  0  0  0
    3.9934    0.0000    0.0000 C   0  0  0  0  0  0  0  0  0  0  0  0
    3.2789   -0.4125    0.0000 C   0  0  0  0  0  0  0  0  0  0  0  0
    2.5645    0.0000    0.0000 C   0  0  0  0  0  0  0  0  0  0  0  0
    2.5645    0.8250    0.0000 C   0  0  0  0  0  0  0  0  0  0  0  0
    1.7798    1.0799    0.0000 C   0  0  0  0  0  0  0  0  0  0  0  0
    1.2949    0.4125    0.0000 N   0  0  0  0  0  0  0  0  0  0  0  0
    1.7798   -0.2549    0.0000 N   0  0  0  0  0  0  0  0  0  0  0  0
    1.5249   -1.0396    0.0000 C   0  0  0  0  0  0  0  0  0  0  0  0
    2.0769   -1.6527    0.0000 C   0  0  0  0  0  0  0  0  0  0  0  0
    1.8220   -2.4373    0.0000 C   0  0  0  0  0  0  0  0  0  0  0  0
    1.0150   -2.6088    0.0000 C   0  0  0  0  0  0  0  0  0  0  0  0
    0.4630   -1.9957    0.0000 C   0  0  0  0  0  0  0  0  0  0  0  0
    0.7179   -1.2111    0.0000 C   0  0  0  0  0  0  0  0  0  0  0  0
    0.1659   -0.5980    0.0000 F   0  0  0  0  0  0  0  0  0  0  0  0
    2.5645    3.3000    0.0000 C   0  0  0  0  0  0  0  0  0  0  0  0
    1.8500    3.7125    0.0000 C   0  0  0  0  0  0  0  0  0  0  0  0
    1.8500    4.5375    0.0000 C   0  0  0  0  0  0  0  0  0  0  0  0
    2.5645    4.9500    0.0000 C   0  0  0  0  0  0  0  0  0  0  0  0
    2.5645    5.7750    0.0000 C   0  0  0  0  0  0  0  0  0  0  0  0
    2.5645    6.6000    0.0000 F   0  0  0  0  0  0  0  0  0  0  0  0
    3.3895    5.7750    0.0000 F   0  0  0  0  0  0  0  0  0  0  0  0
    1.7395    5.7750    0.0000 F   0  0  0  0  0  0  0  0  0  0  0  0
    3.2789    4.5375    0.0000 C   0  0  0  0  0  0  0  0  0  0  0  0
    3.2789    3.7125    0.0000 N   0  0  0  0  0  0  0  0  0  0  0  0
  1  2  2  0  0  0  0
  2  3  1  0  0  0  0
  3  4  1  0  0  0  0
  4  5  1  0  0  0  0
  5  6  1  0  0  0  0
  6  7  1  0  0  0  0
  7  8  1  0  0  0  0
  8  9  4  0  0  0  0
  4  9  1  0  0  0  0
  9 10  4  0  0  0  0
 10 11  4  0  0  0  0
 11 12  4  0  0  0  0
  8 12  4  0  0  0  0
 12 13  1  0  0  0  0
 13 14  4  0  0  0  0
 14 15  4  0  0  0  0
 15 16  4  0  0  0  0
 16 17  4  0  0  0  0
 17 18  4  0  0  0  0
 13 18  4  0  0  0  0
 18 19  1  0  0  0  0
  2 20  1  0  0  0  0
 20 21  4  0  0  0  0
 21 22  4  0  0  0  0
 22 23  4  0  0  0  0
 23 24  1  0  0  0  0
 24 25  1  0  0  0  0
 24 26  1  0  0  0  0
 24 27  1  0  0  0  0
 23 28  4  0  0  0  0
 28 29  4  0  0  0  0
 20 29  4  0  0  0  0
M  END
> <IC50(uM)>
2.0

> <Outcome>
0.0

> <BindingDB ID>
993108

> <BindingDB MonomerID>
477610

> <BindingDB Ligand Name>
N-[(4R)-1-(2-fluorophenyl)-4,5,6,7-tetrahydro-1H-indazol-4-yl]-5-(trifluoromethyl)pyridine-2-carboxamide::US10889564, Example 40

> <Curation/DataSource>
US Patent

> <Article DOI>
?

> <PMID>
?

> <Patent Number>
US10889564

> <Authors>
Lain, S; Drummond, C; Leeuwen, IV; Haraldsson, M; Johansson, L; Sandberg, L; Yngve, U

> <Link to Ligand in BindingDB>
http://www.bindingdb.org/bind/chemsearch/marvin/MolStructure.jsp?monomerid=477610

> <Link to Ligand-Target Pair in BindingDB>
http://www.bindingdb.org/jsp/dbsearch/PrimarySearch_ki.jsp?energyterm=kJ/mole&tag=r21&monomerid=477610&enzyme=Dihydroorotate+dehydrogenase&column=ki&startPg=0&Increment=50&submit=Search

> <PubChem CID>
129104773

> <PubChem SID>
442137227

$$$$

  Mrv2115 07222212352D          

 32 36  0  0  0  0            999 V2000
    3.3523   -0.2854    0.0000 O   0  0  0  0  0  0  0  0  0  0  0  0
    3.3523   -1.1104    0.0000 C   0  0  0  0  0  0  0  0  0  0  0  0
    4.0668   -1.5229    0.0000 C   0  0  0  0  0  0  0  0  0  0  0  0
    4.7812   -1.1104    0.0000 C   0  0  0  0  0  0  0  0  0  0  0  0
    5.4957   -1.5229    0.0000 C   0  0  0  0  0  0  0  0  0  0  0  0
    5.4957   -2.3479    0.0000 C   0  0  0  0  0  0  0  0  0  0  0  0
    4.7812   -2.7604    0.0000 C   0  0  0  0  0  0  0  0  0  0  0  0
    4.0668   -2.3479    0.0000 C   0  0  0  0  0  0  0  0  0  0  0  0
    3.3523   -2.7604    0.0000 C   0  0  0  0  0  0  0  0  0  0  0  0
    3.3523   -3.5854    0.0000 O   0  0  0  0  0  0  0  0  0  0  0  0
    2.6378   -2.3479    0.0000 C   0  0  0  0  0  0  0  0  0  0  0  0
    2.6378   -1.5229    0.0000 C   0  0  0  0  0  0  0  0  0  0  0  0
    1.8532   -1.2680    0.0000 N   0  0  0  0  0  0  0  0  0  0  0  0
    1.3683   -1.9354    0.0000 N   0  0  0  0  0  0  0  0  0  0  0  0
    1.8532   -2.6029    0.0000 N   0  0  0  0  0  0  0  0  0  0  0  0
    1.5983   -3.3875    0.0000 C   0  0  0  0  0  0  0  0  0  0  0  0
    2.1503   -4.0006    0.0000 C   0  0  0  0  0  0  0  0  0  0  0  0
    1.8953   -4.7852    0.0000 C   0  0  0  0  0  0  0  0  0  0  0  0
    2.4474   -5.3983    0.0000 F   0  0  0  0  0  0  0  0  0  0  0  0
    1.0884   -4.9567    0.0000 C   0  0  0  0  0  0  0  0  0  0  0  0
    0.8334   -5.7414    0.0000 C   0  0  0  0  0  0  0  0  0  0  0  0
    1.3855   -6.3545    0.0000 C   0  0  0  0  0  0  0  0  0  0  0  0
    1.1305   -7.1391    0.0000 C   0  0  0  0  0  0  0  0  0  0  0  0
    1.6826   -7.7522    0.0000 C   0  0  0  0  0  0  0  0  0  0  0  0
    2.4895   -7.5807    0.0000 O   0  0  0  0  0  0  0  0  0  0  0  0
    0.3236   -7.3106    0.0000 C   0  0  0  0  0  0  0  0  0  0  0  0
   -0.2285   -6.6975    0.0000 C   0  0  0  0  0  0  0  0  0  0  0  0
    0.0265   -5.9129    0.0000 C   0  0  0  0  0  0  0  0  0  0  0  0
   -0.5256   -5.2998    0.0000 F   0  0  0  0  0  0  0  0  0  0  0  0
    0.5363   -4.3437    0.0000 C   0  0  0  0  0  0  0  0  0  0  0  0
   -0.2706   -4.5152    0.0000 F   0  0  0  0  0  0  0  0  0  0  0  0
    0.7913   -3.5590    0.0000 C   0  0  0  0  0  0  0  0  0  0  0  0
  1  2  2  0  0  0  0
  2  3  1  0  0  0  0
  3  4  4  0  0  0  0
  4  5  4  0  0  0  0
  5  6  4  0  0  0  0
  6  7  4  0  0  0  0
  7  8  4  0  0  0  0
  3  8  4  0  0  0  0
  8  9  1  0  0  0  0
  9 10  2  0  0  0  0
  9 11  1  0  0  0  0
 11 12  4  0  0  0  0
  2 12  1  0  0  0  0
 12 13  4  0  0  0  0
 13 14  4  0  0  0  0
 14 15  4  0  0  0  0
 11 15  4  0  0  0  0
 15 16  1  0  0  0  0
 16 17  4  0  0  0  0
 17 18  4  0  0  0  0
 18 19  1  0  0  0  0
 18 20  4  0  0  0  0
 20 21  1  0  0  0  0
 21 22  4  0  0  0  0
 22 23  4  0  0  0  0
 23 24  1  0  0  0  0
 24 25  1  0  0  0  0
 23 26  4  0  0  0  0
 26 27  4  0  0  0  0
 27 28  4  0  0  0  0
 21 28  4  0  0  0  0
 28 29  1  0  0  0  0
 20 30  4  0  0  0  0
 30 31  1  0  0  0  0
 30 32  4  0  0  0  0
 16 32  4  0  0  0  0
M  END
> <IC50(uM)>
0.0012

> <Outcome>
1.0

> <BindingDB ID>
51338206

> <BindingDB MonomerID>
50541680

> <BindingDB Ligand Name>
CHEMBL4635115

> <Curation/DataSource>
ChEMBL

> <Article DOI>
10.1021/acs.jmedchem.0c00512

> <PMID>
32496056

> <Patent Number>
?

> <Authors>
Zuo, Z; Liu, X; Qian, X; Zeng, T; Sang, N; Liu, H; Zhou, Y; Tao, L; Zhou, X; Su, N; Yu, Y; Chen, Q; Luo, Y; Zhao, Y

> <Link to Ligand in BindingDB>
http://www.bindingdb.org/bind/chemsearch/marvin/MolStructure.jsp?monomerid=50541680

> <Link to Ligand-Target Pair in BindingDB>
http://www.bindingdb.org/jsp/dbsearch/PrimarySearch_ki.jsp?energyterm=kJ/mole&tag=r21&monomerid=50541680&enzyme=Dihydroorotate+dehydrogenase&column=ki&startPg=0&Increment=50&submit=Search

> <PubChem CID>
154700494

> <PubChem SID>
442143243

$$$$

  Mrv2115 07222212352D          

 28 31  0  0  0  0            999 V2000
    0.0000   -1.6500    0.0000 C   0  0  0  0  0  0  0  0  0  0  0  0
    0.7145   -1.2375    0.0000 C   0  0  0  0  0  0  0  0  0  0  0  0
    0.7145   -0.4125    0.0000 C   0  0  0  0  0  0  0  0  0  0  0  0
    1.4289    0.0000    0.0000 C   0  0  0  0  0  0  0  0  0  0  0  0
    2.1434   -0.4125    0.0000 C   0  0  0  0  0  0  0  0  0  0  0  0
    2.8579    0.0000    0.0000 N   0  0  0  0  0  0  0  0  0  0  0  0
    3.5724   -0.4125    0.0000 C   0  0  0  0  0  0  0  0  0  0  0  0
    4.2868   -0.0000    0.0000 C   0  0  0  0  0  0  0  0  0  0  0  0
    4.2868    0.8250    0.0000 C   0  0  0  0  0  0  0  0  0  0  0  0
    5.0013    1.2375    0.0000 C   0  0  0  0  0  0  0  0  0  0  0  0
    5.7158    0.8250    0.0000 C   0  0  0  0  0  0  0  0  0  0  0  0
    6.4302    1.2375    0.0000 F   0  0  0  0  0  0  0  0  0  0  0  0
    5.7158   -0.0000    0.0000 C   0  0  0  0  0  0  0  0  0  0  0  0
    5.0013   -0.4125    0.0000 C   0  0  0  0  0  0  0  0  0  0  0  0
    3.5724   -1.2375    0.0000 C   0  0  0  0  0  0  0  0  0  0  0  0
    2.8579   -1.6500    0.0000 C   0  0  0  0  0  0  0  0  0  0  0  0
    2.8579   -2.4750    0.0000 C   0  0  0  0  0  0  0  0  0  0  0  0
    3.5724   -2.8875    0.0000 O   0  0  0  0  0  0  0  0  0  0  0  0
    2.1434   -2.8875    0.0000 O   0  0  0  0  0  0  0  0  0  0  0  0
    2.1434   -3.7125    0.0000 C   0  0  0  0  0  0  0  0  0  0  0  0
    1.4289   -4.1250    0.0000 C   0  0  0  0  0  0  0  0  0  0  0  0
    1.4289   -4.9500    0.0000 C   0  0  0  0  0  0  0  0  0  0  0  0
    0.7145   -5.3625    0.0000 C   0  0  0  0  0  0  0  0  0  0  0  0
   -0.0000   -4.9500    0.0000 C   0  0  0  0  0  0  0  0  0  0  0  0
   -0.0000   -4.1250    0.0000 C   0  0  0  0  0  0  0  0  0  0  0  0
    0.7145   -3.7125    0.0000 C   0  0  0  0  0  0  0  0  0  0  0  0
    2.1434   -1.2375    0.0000 C   0  0  0  0  0  0  0  0  0  0  0  0
    1.4289   -1.6500    0.0000 C   0  0  0  0  0  0  0  0  0  0  0  0
  1  2  1  0  0  0  0
  2  3  4  0  0  0  0
  3  4  4  0  0  0  0
  4  5  4  0  0  0  0
  5  6  4  0  0  0  0
  6  7  4  0  0  0  0
  7  8  1  0  0  0  0
  8  9  4  0  0  0  0
  9 10  4  0  0  0  0
 10 11  4  0  0  0  0
 11 12  1  0  0  0  0
 11 13  4  0  0  0  0
 13 14  4  0  0  0  0
  8 14  4  0  0  0  0
  7 15  4  0  0  0  0
 15 16  4  0  0  0  0
 16 17  1  0  0  0  0
 17 18  2  0  0  0  0
 17 19  1  0  0  0  0
 19 20  1  0  0  0  0
 20 21  1  0  0  0  0
 21 22  4  0  0  0  0
 22 23  4  0  0  0  0
 23 24  4  0  0  0  0
 24 25  4  0  0  0  0
 25 26  4  0  0  0  0
 21 26  4  0  0  0  0
 16 27  4  0  0  0  0
  5 27  4  0  0  0  0
 27 28  4  0  0  0  0
  2 28  4  0  0  0  0
M  END
> <IC50(uM)>
1.56

> <Outcome>
0.0

> <BindingDB ID>
51311342

> <BindingDB MonomerID>
50532167

> <BindingDB Ligand Name>
CHEMBL4460961

> <Curation/DataSource>
ChEMBL

> <Article DOI>
10.1016/j.bmcl.2019.01.038

> <PMID>
30738663

> <Patent Number>
?

> <Authors>
Vyas, VK; Qureshi, G; Oza, D; Patel, H; Parmar, K; Patel, P; Ghate, MD

> <Link to Ligand in BindingDB>
http://www.bindingdb.org/bind/chemsearch/marvin/MolStructure.jsp?monomerid=50532167

> <Link to Ligand-Target Pair in BindingDB>
http://www.bindingdb.org/jsp/dbsearch/PrimarySearch_ki.jsp?energyterm=kJ/mole&tag=r21&monomerid=50532167&enzyme=Dihydroorotate+dehydrogenase&column=ki&startPg=0&Increment=50&submit=Search

> <PubChem CID>
155528245

> <PubChem SID>
440740749

$$$$

  Mrv2115 07222212352D          

 24 26  0  0  0  0            999 V2000
    0.7145   -0.4125    0.0000 C   0  0  0  0  0  0  0  0  0  0  0  0
    0.7145   -1.2375    0.0000 C   0  0  0  0  0  0  0  0  0  0  0  0
    1.3819   -1.7224    0.0000 S   0  0  0  0  0  0  0  0  0  0  0  0
    1.1270   -2.5070    0.0000 C   0  0  0  0  0  0  0  0  0  0  0  0
    1.6119   -3.1745    0.0000 N   0  0  0  0  0  0  0  0  0  0  0  0
    2.4324   -3.0882    0.0000 N   0  0  0  0  0  0  0  0  0  0  0  0
    2.7679   -2.3346    0.0000 C   0  0  0  0  0  0  0  0  0  0  0  0
    3.5884   -2.2483    0.0000 C   0  0  0  0  0  0  0  0  0  0  0  0
    3.9240   -1.4947    0.0000 C   0  0  0  0  0  0  0  0  0  0  0  0
    4.7445   -1.4084    0.0000 C   0  0  0  0  0  0  0  0  0  0  0  0
    5.2294   -2.0759    0.0000 C   0  0  0  0  0  0  0  0  0  0  0  0
    4.8938   -2.8295    0.0000 C   0  0  0  0  0  0  0  0  0  0  0  0
    4.0733   -2.9158    0.0000 C   0  0  0  0  0  0  0  0  0  0  0  0
    3.7378   -3.6695    0.0000 C   0  0  0  0  0  0  0  0  0  0  0  0
    2.9173   -3.7557    0.0000 O   0  0  0  0  0  0  0  0  0  0  0  0
    4.2227   -4.3369    0.0000 O   0  0  0  0  0  0  0  0  0  0  0  0
    0.3020   -2.5070    0.0000 N   0  0  0  0  0  0  0  0  0  0  0  0
    0.0470   -1.7224    0.0000 C   0  0  0  0  0  0  0  0  0  0  0  0
   -0.7376   -1.4675    0.0000 C   0  0  0  0  0  0  0  0  0  0  0  0
   -1.3507   -2.0195    0.0000 C   0  0  0  0  0  0  0  0  0  0  0  0
   -2.1353   -1.7646    0.0000 C   0  0  0  0  0  0  0  0  0  0  0  0
   -2.3068   -0.9576    0.0000 C   0  0  0  0  0  0  0  0  0  0  0  0
   -1.6937   -0.4056    0.0000 C   0  0  0  0  0  0  0  0  0  0  0  0
   -0.9091   -0.6605    0.0000 C   0  0  0  0  0  0  0  0  0  0  0  0
  1  2  1  0  0  0  0
  2  3  4  0  0  0  0
  3  4  4  0  0  0  0
  4  5  1  0  0  0  0
  5  6  1  0  0  0  0
  6  7  2  0  0  0  0
  7  8  1  0  0  0  0
  8  9  4  0  0  0  0
  9 10  4  0  0  0  0
 10 11  4  0  0  0  0
 11 12  4  0  0  0  0
 12 13  4  0  0  0  0
  8 13  4  0  0  0  0
 13 14  1  0  0  0  0
 14 15  2  0  0  0  0
 14 16  1  0  0  0  0
  4 17  4  0  0  0  0
 17 18  4  0  0  0  0
  2 18  4  0  0  0  0
 18 19  1  0  0  0  0
 19 20  4  0  0  0  0
 20 21  4  0  0  0  0
 21 22  4  0  0  0  0
 22 23  4  0  0  0  0
 23 24  4  0  0  0  0
 19 24  4  0  0  0  0
M  END
> <IC50(uM)>
0.08109999999999999

> <Outcome>
1.0

> <BindingDB ID>
1001125

> <BindingDB MonomerID>
482811

> <BindingDB Ligand Name>
US10919869, No.  17

> <Curation/DataSource>
US Patent

> <Article DOI>
?

> <PMID>
?

> <Patent Number>
US10919869

> <Authors>
Li, H; Xu, Y; Wang, R; Zhao, Z; Song, W; Xu, L

> <Link to Ligand in BindingDB>
http://www.bindingdb.org/bind/chemsearch/marvin/MolStructure.jsp?monomerid=482811

> <Link to Ligand-Target Pair in BindingDB>
http://www.bindingdb.org/jsp/dbsearch/PrimarySearch_ki.jsp?energyterm=kJ/mole&tag=r21&monomerid=482811&enzyme=Dihydroorotate+dehydrogenase&column=ki&startPg=0&Increment=50&submit=Search

> <PubChem CID>
7346373

> <PubChem SID>
443551952

$$$$

  Mrv2115 07222212352D          

 33 37  0  0  0  0            999 V2000
    4.0668    2.3479    0.0000 C   0  0  0  0  0  0  0  0  0  0  0  0
    3.3523    1.9354    0.0000 C   0  0  0  0  0  0  0  0  0  0  0  0
    3.3523    1.1104    0.0000 C   0  0  0  0  0  0  0  0  0  0  0  0
    2.6378    0.6979    0.0000 C   0  0  0  0  0  0  0  0  0  0  0  0
    2.6378   -0.1271    0.0000 C   0  0  0  0  0  0  0  0  0  0  0  0
    1.9233   -0.5396    0.0000 O   0  0  0  0  0  0  0  0  0  0  0  0
    3.3523   -0.5396    0.0000 O   0  0  0  0  0  0  0  0  0  0  0  0
    1.9233    1.1104    0.0000 C   0  0  0  0  0  0  0  0  0  0  0  0
    1.1387    0.8555    0.0000 N   0  0  0  0  0  0  0  0  0  0  0  0
    0.6538    1.5229    0.0000 C   0  0  0  0  0  0  0  0  0  0  0  0
   -0.1712    1.5229    0.0000 C   0  0  0  0  0  0  0  0  0  0  0  0
   -0.5837    0.8085    0.0000 C   0  0  0  0  0  0  0  0  0  0  0  0
   -1.4087    0.8085    0.0000 C   0  0  0  0  0  0  0  0  0  0  0  0
   -1.8212    1.5229    0.0000 C   0  0  0  0  0  0  0  0  0  0  0  0
   -2.6462    1.5229    0.0000 C   0  0  0  0  0  0  0  0  0  0  0  0
   -3.0587    0.8085    0.0000 C   0  0  0  0  0  0  0  0  0  0  0  0
   -3.8837    0.8085    0.0000 C   0  0  0  0  0  0  0  0  0  0  0  0
   -4.2962    1.5229    0.0000 C   0  0  0  0  0  0  0  0  0  0  0  0
   -5.1212    1.5229    0.0000 N   0  0  0  0  0  0  0  0  0  0  0  0
   -5.5337    0.8085    0.0000 C   0  0  0  0  0  0  0  0  0  0  0  0
   -5.1212    0.0940    0.0000 O   0  0  0  0  0  0  0  0  0  0  0  0
   -6.3587    0.8085    0.0000 C   0  0  0  0  0  0  0  0  0  0  0  0
   -6.8436    0.1410    0.0000 C   0  0  0  0  0  0  0  0  0  0  0  0
   -7.6282    0.3960    0.0000 C   0  0  0  0  0  0  0  0  0  0  0  0
   -7.6282    1.2210    0.0000 C   0  0  0  0  0  0  0  0  0  0  0  0
   -6.8436    1.4759    0.0000 N   0  0  0  0  0  0  0  0  0  0  0  0
   -3.8837    2.2374    0.0000 C   0  0  0  0  0  0  0  0  0  0  0  0
   -3.0587    2.2374    0.0000 C   0  0  0  0  0  0  0  0  0  0  0  0
   -1.4087    2.2374    0.0000 C   0  0  0  0  0  0  0  0  0  0  0  0
   -0.5837    2.2374    0.0000 C   0  0  0  0  0  0  0  0  0  0  0  0
    1.1387    2.1904    0.0000 N   0  0  0  0  0  0  0  0  0  0  0  0
    1.9233    1.9354    0.0000 C   0  0  0  0  0  0  0  0  0  0  0  0
    2.6378    2.3479    0.0000 C   0  0  0  0  0  0  0  0  0  0  0  0
  1  2  1  0  0  0  0
  2  3  4  0  0  0  0
  3  4  4  0  0  0  0
  4  5  1  0  0  0  0
  5  6  2  0  0  0  0
  5  7  1  0  0  0  0
  4  8  4  0  0  0  0
  8  9  4  0  0  0  0
  9 10  4  0  0  0  0
 10 11  1  0  0  0  0
 11 12  4  0  0  0  0
 12 13  4  0  0  0  0
 13 14  4  0  0  0  0
 14 15  1  0  0  0  0
 15 16  4  0  0  0  0
 16 17  4  0  0  0  0
 17 18  4  0  0  0  0
 18 19  1  0  0  0  0
 19 20  1  0  0  0  0
 20 21  2  0  0  0  0
 20 22  1  0  0  0  0
 22 23  1  0  0  0  0
 23 24  1  0  0  0  0
 24 25  1  0  0  0  0
 25 26  1  0  0  0  0
 22 26  1  0  0  0  0
 18 27  4  0  0  0  0
 27 28  4  0  0  0  0
 15 28  4  0  0  0  0
 14 29  4  0  0  0  0
 29 30  4  0  0  0  0
 11 30  4  0  0  0  0
 10 31  4  0  0  0  0
 31 32  4  0  0  0  0
  8 32  4  0  0  0  0
 32 33  4  0  0  0  0
  2 33  4  0  0  0  0
M  STY  1   1 DAT
M  SAL   1  1  31
M  SDT   1 MRV_IMPLICIT_H                                        
M  SDD   1     0.5304   -0.4125    DR    ALL  0       0  
M  SED   1 IMPL_H1
M  END
> <IC50(uM)>
0.692

> <Outcome>
1.0

> <BindingDB ID>
297791

> <BindingDB MonomerID>
155447

> <BindingDB Ligand Name>
US9006454, I89

> <Curation/DataSource>
US Patent

> <Article DOI>
?

> <PMID>
?

> <Patent Number>
US9006454

> <Authors>
Thunuguntla, SS; Subramanya, H; Kunnam, SR; Sanivaru Vijay, SR; Bingi, C; Kusanur, R; Schwarz, M; Arlt, M

> <Link to Ligand in BindingDB>
http://www.bindingdb.org/bind/chemsearch/marvin/MolStructure.jsp?monomerid=155447

> <Link to Ligand-Target Pair in BindingDB>
http://www.bindingdb.org/jsp/dbsearch/PrimarySearch_ki.jsp?energyterm=kJ/mole&tag=r21&monomerid=155447&enzyme=Dihydroorotate+dehydrogenase&column=ki&startPg=0&Increment=50&submit=Search

> <PubChem CID>
77404410

> <PubChem SID>
253658384

$$$$

  Mrv2115 07222212352D          

 32 34  0  0  0  0            999 V2000
    2.1434   -3.7125    0.0000 C   0  0  0  0  0  0  0  0  0  0  0  0
    2.8579   -4.1250    0.0000 C   0  0  0  0  0  0  0  0  0  0  0  0
    3.5724   -3.7125    0.0000 C   0  0  0  0  0  0  0  0  0  0  0  0
    4.2868   -4.1250    0.0000 C   0  0  0  0  0  0  0  0  0  0  0  0
    4.2868   -4.9500    0.0000 C   0  0  0  0  0  0  0  0  0  0  0  0
    5.0013   -3.7125    0.0000 O   0  0  0  0  0  0  0  0  0  0  0  0
    5.0013   -2.8875    0.0000 C   0  0  0  0  0  0  0  0  0  0  0  0
    4.2868   -2.4750    0.0000 C   0  0  0  0  0  0  0  0  0  0  0  0
    4.2868   -1.6500    0.0000 C   0  0  0  0  0  0  0  0  0  0  0  0
    3.5724   -1.2375    0.0000 N   0  0  0  0  0  0  0  0  0  0  0  0
    2.8187   -1.5731    0.0000 N   0  0  0  0  0  0  0  0  0  0  0  0
    2.2666   -0.9600    0.0000 C   0  0  0  0  0  0  0  0  0  0  0  0
    1.4462   -1.0462    0.0000 C   0  0  0  0  0  0  0  0  0  0  0  0
    1.1106   -1.7999    0.0000 C   0  0  0  0  0  0  0  0  0  0  0  0
    2.6791   -0.2455    0.0000 N   0  0  0  0  0  0  0  0  0  0  0  0
    2.3436    0.5082    0.0000 C   0  0  0  0  0  0  0  0  0  0  0  0
    3.4861   -0.4170    0.0000 C   0  0  0  0  0  0  0  0  0  0  0  0
    4.0992    0.1350    0.0000 O   0  0  0  0  0  0  0  0  0  0  0  0
    5.0013   -1.2375    0.0000 C   0  0  0  0  0  0  0  0  0  0  0  0
    5.0013   -0.4125    0.0000 F   0  0  0  0  0  0  0  0  0  0  0  0
    5.7158   -1.6500    0.0000 C   0  0  0  0  0  0  0  0  0  0  0  0
    5.7158   -2.4750    0.0000 C   0  0  0  0  0  0  0  0  0  0  0  0
    6.4302   -2.8875    0.0000 C   0  0  0  0  0  0  0  0  0  0  0  0
    6.4302   -3.7125    0.0000 O   0  0  0  0  0  0  0  0  0  0  0  0
    7.1447   -2.4750    0.0000 N   0  0  0  0  0  0  0  0  0  0  0  0
    7.8592   -2.8875    0.0000 C   0  0  0  0  0  0  0  0  0  0  0  0
    8.5737   -2.4750    0.0000 C   0  0  0  0  0  0  0  0  0  0  0  0
    9.2881   -2.8875    0.0000 C   0  0  0  0  0  0  0  0  0  0  0  0
    9.2881   -3.7125    0.0000 C   0  0  0  0  0  0  0  0  0  0  0  0
   10.0026   -4.1250    0.0000 C   0  0  0  0  0  0  0  0  0  0  0  0
    8.5737   -4.1250    0.0000 C   0  0  0  0  0  0  0  0  0  0  0  0
    7.8592   -3.7125    0.0000 C   0  0  0  0  0  0  0  0  0  0  0  0
  1  2  1  0  0  0  0
  2  3  1  0  0  0  0
  3  4  1  0  0  0  0
  4  5  1  0  0  0  0
  4  6  1  0  0  0  0
  6  7  1  0  0  0  0
  7  8  4  0  0  0  0
  8  9  4  0  0  0  0
  9 10  1  0  0  0  0
 10 11  4  0  0  0  0
 11 12  4  0  0  0  0
 12 13  1  0  0  0  0
 13 14  1  0  0  0  0
 12 15  4  0  0  0  0
 15 16  1  0  0  0  0
 15 17  4  0  0  0  0
 10 17  4  0  0  0  0
 17 18  2  0  0  0  0
  9 19  4  0  0  0  0
 19 20  1  0  0  0  0
 19 21  4  0  0  0  0
 21 22  4  0  0  0  0
  7 22  4  0  0  0  0
 22 23  1  0  0  0  0
 23 24  2  0  0  0  0
 23 25  1  0  0  0  0
 25 26  1  0  0  0  0
 26 27  4  0  0  0  0
 27 28  4  0  0  0  0
 28 29  4  0  0  0  0
 29 30  1  0  0  0  0
 29 31  4  0  0  0  0
 31 32  4  0  0  0  0
 26 32  4  0  0  0  0
M  END
> <IC50(uM)>
0.1795

> <Outcome>
1.0

> <BindingDB ID>
1098661; 972507; 972508; 1098662

> <BindingDB MonomerID>
470384

> <BindingDB Ligand Name>
4-(3-ethyl-4-methyl-5-oxo-4,5-dihydro-1H-1,2,4-triazol-1-yl)-5-fluoro-N-(4-methylphenyl)-2-[(2S)-pentan-2-yloxy]benzamide::US10815215, Example 43::US11130745, Example 43; 4-(3-ethyl-4-methyl-5-oxo-4,5-dihydro-1H-1,2,4-triazol-1-yl)-5-fluoro-N-(4-methylphenyl)-2-[(2S)-pentan-2-yloxy]benzamide::US10815215, Example 43

> <Curation/DataSource>
US Patent

> <Article DOI>
?

> <PMID>
?

> <Patent Number>
US11130745; US10815215

> <Authors>
Gradl, SN; Nguyen, D; Eis, K; Gunther, J; Stellfeld, T; Janzer, A; Christian, S; Muller, T; Sheikh, SE; Sykes, DB; Ferrara, SJ; Krober, M; Merz, C; Niehues, M; Schafer, M; Zimmermann, K; Nising, CF; Gradl, SN; Nguyen, D; Eis, K; Gunther, J; Stellfeld, T; Janzer, A; Christian, S; Muller, T; Sheikh, SE; Zhou, HJ; Zhao, C; Sykes, DB; Ferrara, SJ; Liu, K; Krober, M; Merz, C; Niehues, M; Schafer, M; Zimmermann, K; Nising, CF

> <Link to Ligand in BindingDB>
http://www.bindingdb.org/bind/chemsearch/marvin/MolStructure.jsp?monomerid=470384

> <Link to Ligand-Target Pair in BindingDB>
http://www.bindingdb.org/jsp/dbsearch/PrimarySearch_ki.jsp?energyterm=kJ/mole&tag=r21&monomerid=470384&enzyme=Dihydroorotate+dehydrogenase&column=ki&startPg=0&Increment=50&submit=Search

> <PubChem CID>
134469809

> <PubChem SID>
441609561

$$$$

  Mrv2115 07222212352D          

 24 26  0  0  0  0            999 V2000
    7.8592    1.2375    0.0000 O   0  0  0  0  0  0  0  0  0  0  0  0
    7.8592    0.4125    0.0000 C   0  0  0  0  0  0  0  0  0  0  0  0
    7.1447    0.0000    0.0000 C   0  0  0  0  0  0  0  0  0  0  0  0
    6.4302    0.4125    0.0000 C   0  0  0  0  0  0  0  0  0  0  0  0
    5.7158    0.0000    0.0000 N   0  0  0  0  0  0  0  0  0  0  0  0
    5.0013    0.4125    0.0000 C   0  0  0  0  0  0  0  0  0  0  0  0
    5.0013    1.2375    0.0000 O   0  0  0  0  0  0  0  0  0  0  0  0
    4.2868    0.0000    0.0000 C   0  0  0  0  0  0  0  0  0  0  0  0
    4.2868   -0.8250    0.0000 C   0  0  0  0  0  0  0  0  0  0  0  0
    3.5724   -1.2375    0.0000 C   0  0  0  0  0  0  0  0  0  0  0  0
    2.8579   -0.8250    0.0000 C   0  0  0  0  0  0  0  0  0  0  0  0
    2.8579    0.0000    0.0000 C   0  0  0  0  0  0  0  0  0  0  0  0
    3.5724    0.4125    0.0000 C   0  0  0  0  0  0  0  0  0  0  0  0
    8.5737    0.0000    0.0000 N   0  0  0  0  0  0  0  0  0  0  0  0
    9.2881    0.4125    0.0000 C   0  0  0  0  0  0  0  0  0  0  0  0
    9.2881    1.2375    0.0000 C   0  0  0  0  0  0  0  0  0  0  0  0
   10.0026    1.6500    0.0000 C   0  0  0  0  0  0  0  0  0  0  0  0
   10.7171    1.2375    0.0000 C   0  0  0  0  0  0  0  0  0  0  0  0
   10.7171    0.4125    0.0000 C   0  0  0  0  0  0  0  0  0  0  0  0
   11.4315    0.0000    0.0000 C   0  0  0  0  0  0  0  0  0  0  0  0
   11.4315   -0.8250    0.0000 C   0  0  0  0  0  0  0  0  0  0  0  0
   10.7171   -1.2375    0.0000 C   0  0  0  0  0  0  0  0  0  0  0  0
   10.0026   -0.8250    0.0000 C   0  0  0  0  0  0  0  0  0  0  0  0
   10.0026    0.0000    0.0000 C   0  0  0  0  0  0  0  0  0  0  0  0
  1  2  2  0  0  0  0
  2  3  1  0  0  0  0
  3  4  1  0  0  0  0
  4  5  1  0  0  0  0
  5  6  1  0  0  0  0
  6  7  2  0  0  0  0
  6  8  1  0  0  0  0
  8  9  4  0  0  0  0
  9 10  4  0  0  0  0
 10 11  4  0  0  0  0
 11 12  4  0  0  0  0
 12 13  4  0  0  0  0
  8 13  4  0  0  0  0
  2 14  1  0  0  0  0
 14 15  1  0  0  0  0
 15 16  1  0  0  0  0
 16 17  1  0  0  0  0
 17 18  1  0  0  0  0
 18 19  1  0  0  0  0
 19 20  4  0  0  0  0
 20 21  4  0  0  0  0
 21 22  4  0  0  0  0
 22 23  4  0  0  0  0
 23 24  4  0  0  0  0
 19 24  4  0  0  0  0
 15 24  1  0  0  0  0
M  END
> <IC50(uM)>
12.4

> <Outcome>
0.0

> <BindingDB ID>
50527781

> <BindingDB MonomerID>
50201625

> <BindingDB Ligand Name>
CHEMBL3907085

> <Curation/DataSource>
ChEMBL

> <Article DOI>
10.1021/acsmedchemlett.6b00316

> <PMID>
27994748

> <Patent Number>
?

> <Authors>
Lewis, TA; Sykes, DB; Law, JM; Mu??oz, B; Rustiguel, JK; Nonato, MC; Scadden, DT; Schreiber, SL

> <Link to Ligand in BindingDB>
http://www.bindingdb.org/bind/chemsearch/marvin/MolStructure.jsp?monomerid=50201625

> <Link to Ligand-Target Pair in BindingDB>
http://www.bindingdb.org/jsp/dbsearch/PrimarySearch_ki.jsp?energyterm=kJ/mole&tag=r21&monomerid=50201625&enzyme=Dihydroorotate+dehydrogenase&column=ki&startPg=0&Increment=50&submit=Search

> <PubChem CID>
2709135

> <PubChem SID>
375979413

$$$$

  Mrv2115 07222212352D          

 34 37  0  0  0  0            999 V2000
   -5.1659    1.4455    0.0000 C   0  0  0  0  0  0  0  0  0  0  0  0
   -4.3409    1.4455    0.0000 C   0  0  0  0  0  0  0  0  0  0  0  0
   -3.9284    2.1599    0.0000 C   0  0  0  0  0  0  0  0  0  0  0  0
   -3.1034    2.1599    0.0000 C   0  0  0  0  0  0  0  0  0  0  0  0
   -2.6909    1.4455    0.0000 N   0  0  0  0  0  0  0  0  0  0  0  0
   -3.1034    0.7310    0.0000 C   0  0  0  0  0  0  0  0  0  0  0  0
   -3.9284    0.7310    0.0000 C   0  0  0  0  0  0  0  0  0  0  0  0
   -4.3409    0.0165    0.0000 N   0  0  0  0  0  0  0  0  0  0  0  0
   -3.9284   -0.6979    0.0000 C   0  0  0  0  0  0  0  0  0  0  0  0
   -4.3409   -1.4124    0.0000 O   0  0  0  0  0  0  0  0  0  0  0  0
   -3.1034   -0.6979    0.0000 C   0  0  0  0  0  0  0  0  0  0  0  0
   -2.6909    0.0165    0.0000 C   0  0  0  0  0  0  0  0  0  0  0  0
   -1.8659    0.0165    0.0000 C   0  0  0  0  0  0  0  0  0  0  0  0
   -1.4534    0.7310    0.0000 F   0  0  0  0  0  0  0  0  0  0  0  0
   -1.4534   -0.6979    0.0000 C   0  0  0  0  0  0  0  0  0  0  0  0
   -0.6284   -0.6979    0.0000 N   0  0  0  0  0  0  0  0  0  0  0  0
   -0.1435   -1.3654    0.0000 N   0  0  0  0  0  0  0  0  0  0  0  0
    0.6411   -1.1104    0.0000 C   0  0  0  0  0  0  0  0  0  0  0  0
    0.6411   -0.2854    0.0000 N   0  0  0  0  0  0  0  0  0  0  0  0
   -0.1435   -0.0305    0.0000 C   0  0  0  0  0  0  0  0  0  0  0  0
   -0.3984    0.7541    0.0000 O   0  0  0  0  0  0  0  0  0  0  0  0
    1.3556    0.1271    0.0000 C   0  0  0  0  0  0  0  0  0  0  0  0
    2.0701   -0.2854    0.0000 C   0  0  0  0  0  0  0  0  0  0  0  0
    2.0701   -1.1104    0.0000 C   0  0  0  0  0  0  0  0  0  0  0  0
    1.3556   -1.5229    0.0000 C   0  0  0  0  0  0  0  0  0  0  0  0
   -1.8659   -1.4124    0.0000 C   0  0  0  0  0  0  0  0  0  0  0  0
   -2.6909   -1.4124    0.0000 C   0  0  0  0  0  0  0  0  0  0  0  0
   -3.1034   -2.1269    0.0000 O   0  0  0  0  0  0  0  0  0  0  0  0
   -2.6909   -2.8414    0.0000 C   0  0  0  0  0  0  0  0  0  0  0  0
   -1.8659   -2.8414    0.0000 C   0  0  0  0  0  0  0  0  0  0  0  0
   -3.1034   -3.5558    0.0000 C   0  0  0  0  0  0  0  0  0  0  0  0
   -3.8179   -3.1433    0.0000 F   0  0  0  0  0  0  0  0  0  0  0  0
   -2.3890   -3.9683    0.0000 F   0  0  0  0  0  0  0  0  0  0  0  0
   -3.5159   -4.2703    0.0000 F   0  0  0  0  0  0  0  0  0  0  0  0
  1  2  1  0  0  0  0
  2  3  4  0  0  0  0
  3  4  4  0  0  0  0
  4  5  4  0  0  0  0
  5  6  4  0  0  0  0
  6  7  4  0  0  0  0
  2  7  4  0  0  0  0
  7  8  1  0  0  0  0
  8  9  1  0  0  0  0
  9 10  2  0  0  0  0
  9 11  1  0  0  0  0
 11 12  4  0  0  0  0
 12 13  4  0  0  0  0
 13 14  1  0  0  0  0
 13 15  4  0  0  0  0
 15 16  1  0  0  0  0
 16 17  4  0  0  0  0
 17 18  4  0  0  0  0
 18 19  4  0  0  0  0
 19 20  4  0  0  0  0
 16 20  4  0  0  0  0
 20 21  2  0  0  0  0
 19 22  1  0  0  0  0
 22 23  1  0  0  0  0
 23 24  1  0  0  0  0
 24 25  1  0  0  0  0
 18 25  1  0  0  0  0
 15 26  4  0  0  0  0
 26 27  4  0  0  0  0
 11 27  4  0  0  0  0
 27 28  1  0  0  0  0
 28 29  1  0  0  0  0
 29 30  1  0  0  0  0
 29 31  1  0  0  0  0
 31 32  1  0  0  0  0
 31 33  1  0  0  0  0
 31 34  1  0  0  0  0
M  END
> <IC50(uM)>
0.075

> <Outcome>
1.0

> <BindingDB ID>
1020469

> <BindingDB MonomerID>
490417

> <BindingDB Ligand Name>
5-fluoro-N-(4-methylpyridin-3-yl)-4-(3-oxo-5,6,7,8-tetrahydro[1,2,4]triazolo[4,3-a]pyridin-2(3H)-yl)-2-{[(2S)-1,1,1-trifluoropropan-2-yl]oxy}benzamide::US10968216, Example 85

> <Curation/DataSource>
US Patent

> <Article DOI>
?

> <PMID>
?

> <Patent Number>
US10968216

> <Authors>
Gradl, SN; Nguyen, D; Eis, K; Gunther, J; Stellfeld, T; Janzer, A; Christian, S; Mueller, T; Sheikh, SE; Zhou, HJ; Zhao, C; Sykes, DB; Ferrara, SJ; Liu, K; Herbert, SA; Merz, C; Niehues, M; Nising, CF; Schafer, M; Zimmermann, K; Knablein, J; Thede, K; Faupel, T

> <Link to Ligand in BindingDB>
http://www.bindingdb.org/bind/chemsearch/marvin/MolStructure.jsp?monomerid=490417

> <Link to Ligand-Target Pair in BindingDB>
http://www.bindingdb.org/jsp/dbsearch/PrimarySearch_ki.jsp?energyterm=kJ/mole&tag=r21&monomerid=490417&enzyme=Dihydroorotate+dehydrogenase&column=ki&startPg=0&Increment=50&submit=Search

> <PubChem CID>
142335906

> <PubChem SID>
447117144

$$$$

  Mrv2115 07222212352D          

 22 24  0  0  0  0            999 V2000
   -2.3304    4.5315    0.0000 C   0  0  0  0  0  0  0  0  0  0  0  0
   -1.5458    4.7864    0.0000 C   0  0  0  0  0  0  0  0  0  0  0  0
   -1.3743    5.5934    0.0000 C   0  0  0  0  0  0  0  0  0  0  0  0
   -0.5897    5.8484    0.0000 C   0  0  0  0  0  0  0  0  0  0  0  0
    0.0234    5.2963    0.0000 C   0  0  0  0  0  0  0  0  0  0  0  0
    0.8081    5.5513    0.0000 N   0  0  0  0  0  0  0  0  0  0  0  0
    0.9796    6.3582    0.0000 C   0  0  0  0  0  0  0  0  0  0  0  0
    0.4275    6.9713    0.0000 S   0  0  0  0  0  0  0  0  0  0  0  0
    0.8400    7.6858    0.0000 C   0  0  0  0  0  0  0  0  0  0  0  0
    1.6470    7.5143    0.0000 C   0  0  0  0  0  0  0  0  0  0  0  0
    2.2601    8.0663    0.0000 O   0  0  0  0  0  0  0  0  0  0  0  0
    1.7333    6.6938    0.0000 C   0  0  0  0  0  0  0  0  0  0  0  0
    2.4477    6.2813    0.0000 C   0  0  0  0  0  0  0  0  0  0  0  0
    3.1622    6.6938    0.0000 O   0  0  0  0  0  0  0  0  0  0  0  0
    2.4477    5.4563    0.0000 N   0  0  0  0  0  0  0  0  0  0  0  0
    3.1622    5.0438    0.0000 C   0  0  0  0  0  0  0  0  0  0  0  0
    3.1622    4.2188    0.0000 C   0  0  0  0  0  0  0  0  0  0  0  0
    3.5747    3.5043    0.0000 C   0  0  0  0  0  0  0  0  0  0  0  0
    2.7497    3.5043    0.0000 C   0  0  0  0  0  0  0  0  0  0  0  0
   -0.1481    4.4894    0.0000 C   0  0  0  0  0  0  0  0  0  0  0  0
   -0.9327    4.2344    0.0000 C   0  0  0  0  0  0  0  0  0  0  0  0
   -1.1042    3.4274    0.0000 C   0  0  0  0  0  0  0  0  0  0  0  0
  1  2  1  0  0  0  0
  2  3  4  0  0  0  0
  3  4  4  0  0  0  0
  4  5  4  0  0  0  0
  5  6  1  0  0  0  0
  6  7  1  0  0  0  0
  7  8  4  0  0  0  0
  8  9  4  0  0  0  0
  9 10  4  0  0  0  0
 10 11  1  0  0  0  0
 10 12  4  0  0  0  0
  7 12  4  0  0  0  0
 12 13  1  0  0  0  0
 13 14  2  0  0  0  0
 13 15  1  0  0  0  0
 15 16  1  0  0  0  0
 16 17  1  0  0  0  0
 17 18  1  0  0  0  0
 18 19  1  0  0  0  0
 17 19  1  0  0  0  0
  5 20  4  0  0  0  0
 20 21  4  0  0  0  0
  2 21  4  0  0  0  0
 21 22  1  0  0  0  0
M  END
> <IC50(uM)>
1.839

> <Outcome>
0.0

> <BindingDB ID>
51079154

> <BindingDB MonomerID>
50441262

> <BindingDB Ligand Name>
CHEMBL2431487

> <Curation/DataSource>
ChEMBL

> <Article DOI>
10.1021/jm400938g

> <PMID>
24073986

> <Patent Number>
?

> <Authors>
Xu, M; Zhu, J; Diao, Y; Zhou, H; Ren, X; Sun, D; Huang, J; Han, D; Zhao, Z; Zhu, L; Xu, Y; Li, H

> <Link to Ligand in BindingDB>
http://www.bindingdb.org/bind/chemsearch/marvin/MolStructure.jsp?monomerid=50441262

> <Link to Ligand-Target Pair in BindingDB>
http://www.bindingdb.org/jsp/dbsearch/PrimarySearch_ki.jsp?energyterm=kJ/mole&tag=r21&monomerid=50441262&enzyme=Dihydroorotate+dehydrogenase&column=ki&startPg=0&Increment=50&submit=Search

> <PubChem CID>
91898823

> <PubChem SID>
175453579

$$$$

  Mrv2115 07222212352D          

 26 29  0  0  0  0            999 V2000
    2.5559   -1.8243    0.0000 O   0  0  0  0  0  0  0  0  0  0  0  0
    2.5559   -2.6493    0.0000 C   0  0  0  0  0  0  0  0  0  0  0  0
    1.8414   -3.0618    0.0000 O   0  0  0  0  0  0  0  0  0  0  0  0
    3.2704   -3.0618    0.0000 C   0  0  0  0  0  0  0  0  0  0  0  0
    3.2704   -3.8868    0.0000 C   0  0  0  0  0  0  0  0  0  0  0  0
    3.9849   -4.2993    0.0000 C   0  0  0  0  0  0  0  0  0  0  0  0
    3.9849   -5.1243    0.0000 C   0  0  0  0  0  0  0  0  0  0  0  0
    4.3974   -5.8388    0.0000 C   0  0  0  0  0  0  0  0  0  0  0  0
    3.5724   -5.8388    0.0000 C   0  0  0  0  0  0  0  0  0  0  0  0
    4.6993   -3.8868    0.0000 C   0  0  0  0  0  0  0  0  0  0  0  0
    4.6993   -3.0618    0.0000 C   0  0  0  0  0  0  0  0  0  0  0  0
    3.9849   -2.6493    0.0000 C   0  0  0  0  0  0  0  0  0  0  0  0
    3.9849   -1.8243    0.0000 N   0  0  0  0  0  0  0  0  0  0  0  0
    4.6993   -1.4118    0.0000 C   0  0  0  0  0  0  0  0  0  0  0  0
    4.6993   -0.5868    0.0000 C   0  0  0  0  0  0  0  0  0  0  0  0
    5.4138   -0.1743    0.0000 N   0  0  0  0  0  0  0  0  0  0  0  0
    6.1283   -0.5868    0.0000 C   0  0  0  0  0  0  0  0  0  0  0  0
    6.8427   -0.1743    0.0000 C   0  0  0  0  0  0  0  0  0  0  0  0
    6.8427    0.6507    0.0000 C   0  0  0  0  0  0  0  0  0  0  0  0
    7.5572    1.0632    0.0000 C   0  0  0  0  0  0  0  0  0  0  0  0
    8.2717    0.6507    0.0000 C   0  0  0  0  0  0  0  0  0  0  0  0
    8.2717   -0.1743    0.0000 C   0  0  0  0  0  0  0  0  0  0  0  0
    7.5572   -0.5868    0.0000 C   0  0  0  0  0  0  0  0  0  0  0  0
    7.5572   -1.4118    0.0000 F   0  0  0  0  0  0  0  0  0  0  0  0
    6.1283   -1.4118    0.0000 N   0  0  0  0  0  0  0  0  0  0  0  0
    5.4138   -1.8243    0.0000 C   0  0  0  0  0  0  0  0  0  0  0  0
  1  2  2  0  0  0  0
  2  3  1  0  0  0  0
  2  4  1  0  0  0  0
  4  5  4  0  0  0  0
  5  6  4  0  0  0  0
  6  7  1  0  0  0  0
  7  8  1  0  0  0  0
  8  9  1  0  0  0  0
  7  9  1  0  0  0  0
  6 10  4  0  0  0  0
 10 11  4  0  0  0  0
 11 12  4  0  0  0  0
  4 12  4  0  0  0  0
 12 13  1  0  0  0  0
 13 14  1  0  0  0  0
 14 15  4  0  0  0  0
 15 16  4  0  0  0  0
 16 17  4  0  0  0  0
 17 18  1  0  0  0  0
 18 19  4  0  0  0  0
 19 20  4  0  0  0  0
 20 21  4  0  0  0  0
 21 22  4  0  0  0  0
 22 23  4  0  0  0  0
 18 23  4  0  0  0  0
 23 24  1  0  0  0  0
 17 25  4  0  0  0  0
 25 26  4  0  0  0  0
 14 26  4  0  0  0  0
M  END
> <IC50(uM)>
0.01

> <Outcome>
1.0

> <BindingDB ID>
220022

> <BindingDB MonomerID>
102492

> <BindingDB Ligand Name>
US8536165, 96

> <Curation/DataSource>
US Patent

> <Article DOI>
?

> <PMID>
?

> <Patent Number>
US8536165

> <Authors>
Castro Palomino Laria, JC; Terricabras Belart, E; Erra Sola, M; Navarro Romero, E; Fonquerna Pou, S; Cardus Figueras, A; Lozoya Toribio, ME

> <Link to Ligand in BindingDB>
http://www.bindingdb.org/bind/chemsearch/marvin/MolStructure.jsp?monomerid=102492

> <Link to Ligand-Target Pair in BindingDB>
http://www.bindingdb.org/jsp/dbsearch/PrimarySearch_ki.jsp?energyterm=kJ/mole&tag=r21&monomerid=102492&enzyme=Dihydroorotate+dehydrogenase&column=ki&startPg=0&Increment=50&submit=Search

> <PubChem CID>
56966984

> <PubChem SID>
172097783

$$$$

  Mrv2115 07222212352D          

 21 23  0  0  0  0            999 V2000
   -2.1434   -2.8875    0.0000 C   0  0  0  0  0  0  0  0  0  0  0  0
   -1.4289   -2.4750    0.0000 C   0  0  0  0  0  0  0  0  0  0  0  0
   -1.4289   -1.6500    0.0000 C   0  0  0  0  0  0  0  0  0  0  0  0
   -0.7145   -1.2375    0.0000 C   0  0  0  0  0  0  0  0  0  0  0  0
    0.0000   -1.6500    0.0000 C   0  0  0  0  0  0  0  0  0  0  0  0
    0.7145   -1.2375    0.0000 C   0  0  0  0  0  0  0  0  0  0  0  0
    0.7145   -0.4125    0.0000 C   0  0  0  0  0  0  0  0  0  0  0  0
    1.4289    0.0000    0.0000 C   0  0  0  0  0  0  0  0  0  0  0  0
    1.4289    0.8250    0.0000 C   0  0  0  0  0  0  0  0  0  0  0  0
    2.1434    1.2375    0.0000 O   0  0  0  0  0  0  0  0  0  0  0  0
    0.7145    1.2375    0.0000 O   0  0  0  0  0  0  0  0  0  0  0  0
    2.1434   -0.4125    0.0000 C   0  0  0  0  0  0  0  0  0  0  0  0
    2.8579    0.0000    0.0000 C   0  0  0  0  0  0  0  0  0  0  0  0
    3.5724   -0.4125    0.0000 C   0  0  0  0  0  0  0  0  0  0  0  0
    4.2868   -0.0000    0.0000 Cl  0  0  0  0  0  0  0  0  0  0  0  0
    3.5724   -1.2375    0.0000 C   0  0  0  0  0  0  0  0  0  0  0  0
    2.8579   -1.6500    0.0000 C   0  0  0  0  0  0  0  0  0  0  0  0
    2.1434   -1.2375    0.0000 C   0  0  0  0  0  0  0  0  0  0  0  0
    1.4289   -1.6500    0.0000 N   0  0  0  0  0  0  0  0  0  0  0  0
    0.0000   -2.4750    0.0000 C   0  0  0  0  0  0  0  0  0  0  0  0
   -0.7145   -2.8875    0.0000 C   0  0  0  0  0  0  0  0  0  0  0  0
  1  2  1  0  0  0  0
  2  3  4  0  0  0  0
  3  4  4  0  0  0  0
  4  5  4  0  0  0  0
  5  6  1  0  0  0  0
  6  7  4  0  0  0  0
  7  8  4  0  0  0  0
  8  9  1  0  0  0  0
  9 10  2  0  0  0  0
  9 11  1  0  0  0  0
  8 12  4  0  0  0  0
 12 13  4  0  0  0  0
 13 14  4  0  0  0  0
 14 15  1  0  0  0  0
 14 16  4  0  0  0  0
 16 17  4  0  0  0  0
 17 18  4  0  0  0  0
 12 18  4  0  0  0  0
 18 19  4  0  0  0  0
  6 19  4  0  0  0  0
  5 20  4  0  0  0  0
 20 21  4  0  0  0  0
  2 21  4  0  0  0  0
M  END
> <IC50(uM)>
5.9

> <Outcome>
0.0

> <BindingDB ID>
51064009

> <BindingDB MonomerID>
50434233

> <BindingDB Ligand Name>
CHEMBL2385721

> <Curation/DataSource>
ChEMBL

> <Article DOI>
10.1021/ml300464h

> <PMID>
23930152

> <Patent Number>
?

> <Authors>
Das, P; Deng, X; Zhang, L; Roth, MG; Fontoura, BM; Phillips, MA; De Brabander, JK

> <Link to Ligand in BindingDB>
http://www.bindingdb.org/bind/chemsearch/marvin/MolStructure.jsp?monomerid=50434233

> <Link to Ligand-Target Pair in BindingDB>
http://www.bindingdb.org/jsp/dbsearch/PrimarySearch_ki.jsp?energyterm=kJ/mole&tag=r21&monomerid=50434233&enzyme=Dihydroorotate+dehydrogenase&column=ki&startPg=0&Increment=50&submit=Search

> <PubChem CID>
1133093

> <PubChem SID>
175446550

$$$$

  Mrv2115 07222212352D          

 23 24  0  0  0  0            999 V2000
    2.0367   -0.4741    0.0000 C   0  0  0  0  0  0  0  0  0  0  0  0
    2.0367   -1.2991    0.0000 C   0  0  0  0  0  0  0  0  0  0  0  0
    1.3693   -1.7840    0.0000 N   0  0  0  0  0  0  0  0  0  0  0  0
    1.6242   -2.5687    0.0000 N   0  0  0  0  0  0  0  0  0  0  0  0
    2.4492   -2.5687    0.0000 C   0  0  0  0  0  0  0  0  0  0  0  0
    2.9341   -3.2361    0.0000 N   0  0  0  0  0  0  0  0  0  0  0  0
    2.5986   -3.9898    0.0000 C   0  0  0  0  0  0  0  0  0  0  0  0
    3.0835   -4.6572    0.0000 C   0  0  0  0  0  0  0  0  0  0  0  0
    2.7479   -5.4109    0.0000 C   0  0  0  0  0  0  0  0  0  0  0  0
    3.2329   -6.0783    0.0000 C   0  0  0  0  0  0  0  0  0  0  0  0
    3.7178   -6.7458    0.0000 F   0  0  0  0  0  0  0  0  0  0  0  0
    2.5654   -6.5632    0.0000 F   0  0  0  0  0  0  0  0  0  0  0  0
    3.9003   -5.5934    0.0000 F   0  0  0  0  0  0  0  0  0  0  0  0
    1.9275   -5.4971    0.0000 C   0  0  0  0  0  0  0  0  0  0  0  0
    1.4425   -4.8297    0.0000 C   0  0  0  0  0  0  0  0  0  0  0  0
    0.6221   -4.9159    0.0000 C   0  0  0  0  0  0  0  0  0  0  0  0
   -0.1984   -5.0021    0.0000 F   0  0  0  0  0  0  0  0  0  0  0  0
    0.5358   -4.0954    0.0000 F   0  0  0  0  0  0  0  0  0  0  0  0
    0.7083   -5.7364    0.0000 F   0  0  0  0  0  0  0  0  0  0  0  0
    1.7781   -4.0760    0.0000 C   0  0  0  0  0  0  0  0  0  0  0  0
    2.7041   -1.7840    0.0000 C   0  0  0  0  0  0  0  0  0  0  0  0
    3.4888   -1.5291    0.0000 C   0  0  0  0  0  0  0  0  0  0  0  0
    4.2734   -1.2742    0.0000 N   0  0  0  0  0  0  0  0  0  0  0  0
  1  2  1  0  0  0  0
  2  3  4  0  0  0  0
  3  4  4  0  0  0  0
  4  5  4  0  0  0  0
  5  6  1  0  0  0  0
  6  7  1  0  0  0  0
  7  8  4  0  0  0  0
  8  9  4  0  0  0  0
  9 10  1  0  0  0  0
 10 11  1  0  0  0  0
 10 12  1  0  0  0  0
 10 13  1  0  0  0  0
  9 14  4  0  0  0  0
 14 15  4  0  0  0  0
 15 16  1  0  0  0  0
 16 17  1  0  0  0  0
 16 18  1  0  0  0  0
 16 19  1  0  0  0  0
 15 20  4  0  0  0  0
  7 20  4  0  0  0  0
  5 21  4  0  0  0  0
  2 21  4  0  0  0  0
 21 22  1  0  0  0  0
 22 23  3  0  0  0  0
M  STY  1   1 DAT
M  SAL   1  1   4
M  SDT   1 MRV_IMPLICIT_H                                        
M  SDD   1     0.5304   -0.4125    DR    ALL  0       0  
M  SED   1 IMPL_H1
M  END
> <IC50(uM)>
50.0

> <Outcome>
0.0

> <BindingDB ID>
50786789

> <BindingDB MonomerID>
50066606

> <BindingDB Ligand Name>
3-(3,5-Bis-trifluoromethyl-phenylamino)-5-methyl-1H-pyrazole-4-carbonitrile::CHEMBL332480

> <Curation/DataSource>
ChEMBL

> <Article DOI>
10.1021/jm981028c

> <PMID>
9719606

> <Patent Number>
?

> <Authors>
Papageorgiou, C; Albert, R; Floersheim, P; Lemaire, M; Bitch, F; Weber, HP; Andersen, E; Hungerford, V; Schreier, MH

> <Link to Ligand in BindingDB>
http://www.bindingdb.org/bind/chemsearch/marvin/MolStructure.jsp?monomerid=50066606

> <Link to Ligand-Target Pair in BindingDB>
http://www.bindingdb.org/jsp/dbsearch/PrimarySearch_ki.jsp?energyterm=kJ/mole&tag=r21&monomerid=50066606&enzyme=Dihydroorotate+dehydrogenase&column=ki&startPg=0&Increment=50&submit=Search

> <PubChem CID>
10711746

> <PubChem SID>
103961226

$$$$

  Mrv2115 07222212352D          

 20 21  0  0  0  0            999 V2000
    0.0000   -0.0000    0.0000 O   0  0  0  0  0  0  0  0  0  0  0  0
   -0.7145   -0.4125    0.0000 C   0  0  0  0  0  0  0  0  0  0  0  0
   -1.4289    0.0000    0.0000 O   0  0  0  0  0  0  0  0  0  0  0  0
   -0.7145   -1.2375    0.0000 C   0  0  0  0  0  0  0  0  0  0  0  0
    0.0000   -1.6500    0.0000 C   0  0  0  0  0  0  0  0  0  0  0  0
    0.0000   -2.4750    0.0000 C   0  0  0  0  0  0  0  0  0  0  0  0
   -0.7145   -2.8875    0.0000 C   0  0  0  0  0  0  0  0  0  0  0  0
   -1.4289   -2.4750    0.0000 N   0  0  0  0  0  0  0  0  0  0  0  0
   -1.4289   -1.6500    0.0000 C   0  0  0  0  0  0  0  0  0  0  0  0
   -2.1434   -1.2375    0.0000 N   0  0  0  0  0  0  0  0  0  0  0  0
   -2.8579   -1.6500    0.0000 C   0  0  0  0  0  0  0  0  0  0  0  0
   -2.8579   -2.4750    0.0000 C   0  0  0  0  0  0  0  0  0  0  0  0
   -3.5724   -2.8875    0.0000 C   0  0  0  0  0  0  0  0  0  0  0  0
   -4.2868   -2.4750    0.0000 C   0  0  0  0  0  0  0  0  0  0  0  0
   -4.2868   -1.6500    0.0000 C   0  0  0  0  0  0  0  0  0  0  0  0
   -5.0013   -1.2375    0.0000 C   0  0  0  0  0  0  0  0  0  0  0  0
   -5.7158   -0.8250    0.0000 F   0  0  0  0  0  0  0  0  0  0  0  0
   -4.5888   -0.5230    0.0000 F   0  0  0  0  0  0  0  0  0  0  0  0
   -5.4138   -1.9520    0.0000 F   0  0  0  0  0  0  0  0  0  0  0  0
   -3.5724   -1.2375    0.0000 C   0  0  0  0  0  0  0  0  0  0  0  0
  1  2  2  0  0  0  0
  2  3  1  0  0  0  0
  2  4  1  0  0  0  0
  4  5  4  0  0  0  0
  5  6  4  0  0  0  0
  6  7  4  0  0  0  0
  7  8  4  0  0  0  0
  8  9  4  0  0  0  0
  4  9  4  0  0  0  0
  9 10  1  0  0  0  0
 10 11  1  0  0  0  0
 11 12  4  0  0  0  0
 12 13  4  0  0  0  0
 13 14  4  0  0  0  0
 14 15  4  0  0  0  0
 15 16  1  0  0  0  0
 16 17  1  0  0  0  0
 16 18  1  0  0  0  0
 16 19  1  0  0  0  0
 15 20  4  0  0  0  0
 11 20  4  0  0  0  0
M  END
> <IC50(uM)>
17.0

> <Outcome>
0.0

> <BindingDB ID>
50527792

> <BindingDB MonomerID>
85507

> <BindingDB Ligand Name>
CAS_4394-00-7::NSC_4488::Niflumic acid::Niflumic acid (Hit 16)::US10278929, Niflumic acid

> <Curation/DataSource>
ChEMBL

> <Article DOI>
10.1021/acsmedchemlett.6b00316

> <PMID>
27994748

> <Patent Number>
?

> <Authors>
Lewis, TA; Sykes, DB; Law, JM; Mu??oz, B; Rustiguel, JK; Nonato, MC; Scadden, DT; Schreiber, SL

> <Link to Ligand in BindingDB>
http://www.bindingdb.org/bind/chemsearch/marvin/MolStructure.jsp?monomerid=85507

> <Link to Ligand-Target Pair in BindingDB>
http://www.bindingdb.org/jsp/dbsearch/PrimarySearch_ki.jsp?energyterm=kJ/mole&tag=r21&monomerid=85507&enzyme=Dihydroorotate+dehydrogenase&column=ki&startPg=0&Increment=50&submit=Search

> <PubChem CID>
4488

> <PubChem SID>
136351607

$$$$

  Mrv2115 07222212352D          

 31 35  0  0  0  0            999 V2000
    3.3523   -0.2854    0.0000 O   0  0  0  0  0  0  0  0  0  0  0  0
    3.3523   -1.1104    0.0000 C   0  0  0  0  0  0  0  0  0  0  0  0
    4.0668   -1.5229    0.0000 C   0  0  0  0  0  0  0  0  0  0  0  0
    4.7812   -1.1104    0.0000 C   0  0  0  0  0  0  0  0  0  0  0  0
    5.4957   -1.5229    0.0000 C   0  0  0  0  0  0  0  0  0  0  0  0
    6.2102   -1.1104    0.0000 O   0  0  0  0  0  0  0  0  0  0  0  0
    5.4957   -2.3479    0.0000 C   0  0  0  0  0  0  0  0  0  0  0  0
    4.7812   -2.7604    0.0000 C   0  0  0  0  0  0  0  0  0  0  0  0
    4.0668   -2.3479    0.0000 C   0  0  0  0  0  0  0  0  0  0  0  0
    3.3523   -2.7604    0.0000 C   0  0  0  0  0  0  0  0  0  0  0  0
    3.3523   -3.5854    0.0000 O   0  0  0  0  0  0  0  0  0  0  0  0
    2.6378   -2.3479    0.0000 C   0  0  0  0  0  0  0  0  0  0  0  0
    2.6378   -1.5229    0.0000 C   0  0  0  0  0  0  0  0  0  0  0  0
    1.8532   -1.2680    0.0000 N   0  0  0  0  0  0  0  0  0  0  0  0
    1.3683   -1.9354    0.0000 N   0  0  0  0  0  0  0  0  0  0  0  0
    1.8532   -2.6029    0.0000 N   0  0  0  0  0  0  0  0  0  0  0  0
    1.5983   -3.3875    0.0000 C   0  0  0  0  0  0  0  0  0  0  0  0
    2.1503   -4.0006    0.0000 C   0  0  0  0  0  0  0  0  0  0  0  0
    1.8953   -4.7852    0.0000 C   0  0  0  0  0  0  0  0  0  0  0  0
    2.4474   -5.3983    0.0000 F   0  0  0  0  0  0  0  0  0  0  0  0
    1.0884   -4.9567    0.0000 C   0  0  0  0  0  0  0  0  0  0  0  0
    0.8334   -5.7414    0.0000 C   0  0  0  0  0  0  0  0  0  0  0  0
    1.3855   -6.3545    0.0000 C   0  0  0  0  0  0  0  0  0  0  0  0
    1.1305   -7.1391    0.0000 C   0  0  0  0  0  0  0  0  0  0  0  0
    0.3236   -7.3106    0.0000 C   0  0  0  0  0  0  0  0  0  0  0  0
   -0.2285   -6.6975    0.0000 C   0  0  0  0  0  0  0  0  0  0  0  0
    0.0265   -5.9129    0.0000 C   0  0  0  0  0  0  0  0  0  0  0  0
   -0.5256   -5.2998    0.0000 F   0  0  0  0  0  0  0  0  0  0  0  0
    0.5363   -4.3437    0.0000 C   0  0  0  0  0  0  0  0  0  0  0  0
   -0.2706   -4.5152    0.0000 F   0  0  0  0  0  0  0  0  0  0  0  0
    0.7913   -3.5590    0.0000 C   0  0  0  0  0  0  0  0  0  0  0  0
  1  2  2  0  0  0  0
  2  3  1  0  0  0  0
  3  4  4  0  0  0  0
  4  5  4  0  0  0  0
  5  6  1  0  0  0  0
  5  7  4  0  0  0  0
  7  8  4  0  0  0  0
  8  9  4  0  0  0  0
  3  9  4  0  0  0  0
  9 10  1  0  0  0  0
 10 11  2  0  0  0  0
 10 12  1  0  0  0  0
 12 13  4  0  0  0  0
  2 13  1  0  0  0  0
 13 14  4  0  0  0  0
 14 15  4  0  0  0  0
 15 16  4  0  0  0  0
 12 16  4  0  0  0  0
 16 17  1  0  0  0  0
 17 18  4  0  0  0  0
 18 19  4  0  0  0  0
 19 20  1  0  0  0  0
 19 21  4  0  0  0  0
 21 22  1  0  0  0  0
 22 23  4  0  0  0  0
 23 24  4  0  0  0  0
 24 25  4  0  0  0  0
 25 26  4  0  0  0  0
 26 27  4  0  0  0  0
 22 27  4  0  0  0  0
 27 28  1  0  0  0  0
 21 29  4  0  0  0  0
 29 30  1  0  0  0  0
 29 31  4  0  0  0  0
 17 31  4  0  0  0  0
M  END
> <IC50(uM)>
1.0

> <Outcome>
1.0

> <BindingDB ID>
51338209

> <BindingDB MonomerID>
50541683

> <BindingDB Ligand Name>
CHEMBL4649712

> <Curation/DataSource>
ChEMBL

> <Article DOI>
10.1021/acs.jmedchem.0c00512

> <PMID>
32496056

> <Patent Number>
?

> <Authors>
Zuo, Z; Liu, X; Qian, X; Zeng, T; Sang, N; Liu, H; Zhou, Y; Tao, L; Zhou, X; Su, N; Yu, Y; Chen, Q; Luo, Y; Zhao, Y

> <Link to Ligand in BindingDB>
http://www.bindingdb.org/bind/chemsearch/marvin/MolStructure.jsp?monomerid=50541683

> <Link to Ligand-Target Pair in BindingDB>
http://www.bindingdb.org/jsp/dbsearch/PrimarySearch_ki.jsp?energyterm=kJ/mole&tag=r21&monomerid=50541683&enzyme=Dihydroorotate+dehydrogenase&column=ki&startPg=0&Increment=50&submit=Search

> <PubChem CID>
156021850

> <PubChem SID>
442143246

$$$$

  Mrv2115 07222212352D          

 32 36  0  0  0  0            999 V2000
    4.0668    2.3479    0.0000 C   0  0  0  0  0  0  0  0  0  0  0  0
    3.3523    1.9354    0.0000 C   0  0  0  0  0  0  0  0  0  0  0  0
    3.3523    1.1104    0.0000 C   0  0  0  0  0  0  0  0  0  0  0  0
    2.6378    0.6979    0.0000 C   0  0  0  0  0  0  0  0  0  0  0  0
    2.6378   -0.1271    0.0000 C   0  0  0  0  0  0  0  0  0  0  0  0
    1.9233   -0.5396    0.0000 N   0  0  0  0  0  0  0  0  0  0  0  0
    3.3523   -0.5396    0.0000 O   0  0  0  0  0  0  0  0  0  0  0  0
    1.9233    1.1104    0.0000 C   0  0  0  0  0  0  0  0  0  0  0  0
    1.1387    0.8555    0.0000 N   0  0  0  0  0  0  0  0  0  0  0  0
    0.6538    1.5229    0.0000 C   0  0  0  0  0  0  0  0  0  0  0  0
   -0.1712    1.5229    0.0000 C   0  0  0  0  0  0  0  0  0  0  0  0
   -0.5837    0.8085    0.0000 C   0  0  0  0  0  0  0  0  0  0  0  0
   -1.4087    0.8085    0.0000 C   0  0  0  0  0  0  0  0  0  0  0  0
   -1.8212    1.5229    0.0000 C   0  0  0  0  0  0  0  0  0  0  0  0
   -2.6462    1.5229    0.0000 C   0  0  0  0  0  0  0  0  0  0  0  0
   -3.0587    0.8085    0.0000 C   0  0  0  0  0  0  0  0  0  0  0  0
   -3.8837    0.8085    0.0000 N   0  0  0  0  0  0  0  0  0  0  0  0
   -4.2962    1.5229    0.0000 C   0  0  0  0  0  0  0  0  0  0  0  0
   -3.8837    2.2374    0.0000 C   0  0  0  0  0  0  0  0  0  0  0  0
   -4.2962    2.9519    0.0000 C   0  0  0  0  0  0  0  0  0  0  0  0
   -5.1212    2.9519    0.0000 O   0  0  0  0  0  0  0  0  0  0  0  0
   -3.8837    3.6664    0.0000 N   0  0  0  0  0  0  0  0  0  0  0  0
   -4.2193    4.4200    0.0000 C   0  0  0  0  0  0  0  0  0  0  0  0
   -3.6062    4.9721    0.0000 C   0  0  0  0  0  0  0  0  0  0  0  0
   -2.8917    4.5596    0.0000 C   0  0  0  0  0  0  0  0  0  0  0  0
   -3.0632    3.7526    0.0000 C   0  0  0  0  0  0  0  0  0  0  0  0
   -3.0587    2.2374    0.0000 C   0  0  0  0  0  0  0  0  0  0  0  0
   -1.4087    2.2374    0.0000 C   0  0  0  0  0  0  0  0  0  0  0  0
   -0.5837    2.2374    0.0000 C   0  0  0  0  0  0  0  0  0  0  0  0
    1.1387    2.1904    0.0000 N   0  0  0  0  0  0  0  0  0  0  0  0
    1.9233    1.9354    0.0000 C   0  0  0  0  0  0  0  0  0  0  0  0
    2.6378    2.3479    0.0000 C   0  0  0  0  0  0  0  0  0  0  0  0
  1  2  1  0  0  0  0
  2  3  4  0  0  0  0
  3  4  4  0  0  0  0
  4  5  1  0  0  0  0
  5  6  1  0  0  0  0
  5  7  2  0  0  0  0
  4  8  4  0  0  0  0
  8  9  4  0  0  0  0
  9 10  4  0  0  0  0
 10 11  1  0  0  0  0
 11 12  4  0  0  0  0
 12 13  4  0  0  0  0
 13 14  4  0  0  0  0
 14 15  1  0  0  0  0
 15 16  4  0  0  0  0
 16 17  4  0  0  0  0
 17 18  4  0  0  0  0
 18 19  4  0  0  0  0
 19 20  1  0  0  0  0
 20 21  2  0  0  0  0
 20 22  1  0  0  0  0
 22 23  1  0  0  0  0
 23 24  1  0  0  0  0
 24 25  1  0  0  0  0
 25 26  1  0  0  0  0
 22 26  1  0  0  0  0
 19 27  4  0  0  0  0
 15 27  4  0  0  0  0
 14 28  4  0  0  0  0
 28 29  4  0  0  0  0
 11 29  4  0  0  0  0
 10 30  4  0  0  0  0
 30 31  4  0  0  0  0
  8 31  4  0  0  0  0
 31 32  4  0  0  0  0
  2 32  4  0  0  0  0
M  STY  1   1 DAT
M  SAL   1  1  30
M  SDT   1 MRV_IMPLICIT_H                                        
M  SDD   1     0.5304   -0.4125    DR    ALL  0       0  
M  SED   1 IMPL_H1
M  END
> <IC50(uM)>
50.0

> <Outcome>
0.0

> <BindingDB ID>
50358215

> <BindingDB MonomerID>
50096205

> <BindingDB Ligand Name>
CHEMBL3593981

> <Curation/DataSource>
ChEMBL

> <Article DOI>
10.1016/j.bmc.2015.05.051

> <PMID>
26088338

> <Patent Number>
?

> <Authors>
Abdullah, I; Chee, CF; Lee, YK; Thunuguntla, SS; Satish Reddy, K; Nellore, K; Antony, T; Verma, J; Mun, KW; Othman, S; Subramanya, H; Rahman, NA

> <Link to Ligand in BindingDB>
http://www.bindingdb.org/bind/chemsearch/marvin/MolStructure.jsp?monomerid=50096205

> <Link to Ligand-Target Pair in BindingDB>
http://www.bindingdb.org/jsp/dbsearch/PrimarySearch_ki.jsp?energyterm=kJ/mole&tag=r21&monomerid=50096205&enzyme=Dihydroorotate+dehydrogenase&column=ki&startPg=0&Increment=50&submit=Search

> <PubChem CID>
122182309

> <PubChem SID>
103993772

$$$$

  Mrv2115 07222212352D          

 39 42  0  0  0  0            999 V2000
   -5.2708   -1.4156    0.0000 C   0  0  0  0  0  0  0  0  0  0  0  0
   -5.6833   -0.7011    0.0000 C   0  0  0  0  0  0  0  0  0  0  0  0
   -6.5083   -0.7011    0.0000 C   0  0  0  0  0  0  0  0  0  0  0  0
   -6.9208    0.0134    0.0000 C   0  0  0  0  0  0  0  0  0  0  0  0
   -6.5083    0.7279    0.0000 C   0  0  0  0  0  0  0  0  0  0  0  0
   -5.6833    0.7279    0.0000 C   0  0  0  0  0  0  0  0  0  0  0  0
   -5.2708    1.4423    0.0000 C   0  0  0  0  0  0  0  0  0  0  0  0
   -4.8583    2.1568    0.0000 F   0  0  0  0  0  0  0  0  0  0  0  0
   -4.5563    1.0298    0.0000 F   0  0  0  0  0  0  0  0  0  0  0  0
   -5.9852    1.8548    0.0000 F   0  0  0  0  0  0  0  0  0  0  0  0
   -5.2708    0.0134    0.0000 C   0  0  0  0  0  0  0  0  0  0  0  0
   -4.4458    0.0134    0.0000 N   0  0  0  0  0  0  0  0  0  0  0  0
   -4.0333   -0.7011    0.0000 C   0  0  0  0  0  0  0  0  0  0  0  0
   -4.4458   -1.4156    0.0000 O   0  0  0  0  0  0  0  0  0  0  0  0
   -3.2083   -0.7011    0.0000 C   0  0  0  0  0  0  0  0  0  0  0  0
   -2.7958    0.0134    0.0000 C   0  0  0  0  0  0  0  0  0  0  0  0
   -1.9708    0.0134    0.0000 C   0  0  0  0  0  0  0  0  0  0  0  0
   -1.5583    0.7279    0.0000 F   0  0  0  0  0  0  0  0  0  0  0  0
   -1.5583   -0.7011    0.0000 C   0  0  0  0  0  0  0  0  0  0  0  0
   -0.7333   -0.7011    0.0000 N   0  0  0  0  0  0  0  0  0  0  0  0
   -0.2483   -1.3685    0.0000 N   0  0  0  0  0  0  0  0  0  0  0  0
    0.5363   -1.1136    0.0000 C   0  0  0  0  0  0  0  0  0  0  0  0
    0.5363   -0.2886    0.0000 N   0  0  0  0  0  0  0  0  0  0  0  0
   -0.2483   -0.0336    0.0000 C   0  0  0  0  0  0  0  0  0  0  0  0
   -0.5033    0.7510    0.0000 O   0  0  0  0  0  0  0  0  0  0  0  0
    1.1813    0.2258    0.0000 C   0  0  0  0  0  0  0  0  0  0  0  0
    1.9856    0.0422    0.0000 C   0  0  0  0  0  0  0  0  0  0  0  0
    2.3436   -0.7011    0.0000 C   0  0  0  0  0  0  0  0  0  0  0  0
    1.9856   -1.4444    0.0000 O   0  0  0  0  0  0  0  0  0  0  0  0
    1.1813   -1.6280    0.0000 C   0  0  0  0  0  0  0  0  0  0  0  0
   -1.9708   -1.4156    0.0000 C   0  0  0  0  0  0  0  0  0  0  0  0
   -2.7958   -1.4156    0.0000 C   0  0  0  0  0  0  0  0  0  0  0  0
   -3.2083   -2.1300    0.0000 O   0  0  0  0  0  0  0  0  0  0  0  0
   -2.7958   -2.8445    0.0000 C   0  0  0  0  0  0  0  0  0  0  0  0
   -1.9708   -2.8445    0.0000 C   0  0  0  0  0  0  0  0  0  0  0  0
   -3.2083   -3.5590    0.0000 C   0  0  0  0  0  0  0  0  0  0  0  0
   -3.9227   -3.1465    0.0000 F   0  0  0  0  0  0  0  0  0  0  0  0
   -2.4938   -3.9715    0.0000 F   0  0  0  0  0  0  0  0  0  0  0  0
   -3.6208   -4.2734    0.0000 F   0  0  0  0  0  0  0  0  0  0  0  0
  1  2  1  0  0  0  0
  2  3  4  0  0  0  0
  3  4  4  0  0  0  0
  4  5  4  0  0  0  0
  5  6  4  0  0  0  0
  6  7  1  0  0  0  0
  7  8  1  0  0  0  0
  7  9  1  0  0  0  0
  7 10  1  0  0  0  0
  6 11  4  0  0  0  0
  2 11  4  0  0  0  0
 11 12  1  0  0  0  0
 12 13  1  0  0  0  0
 13 14  2  0  0  0  0
 13 15  1  0  0  0  0
 15 16  4  0  0  0  0
 16 17  4  0  0  0  0
 17 18  1  0  0  0  0
 17 19  4  0  0  0  0
 19 20  1  0  0  0  0
 20 21  4  0  0  0  0
 21 22  4  0  0  0  0
 22 23  4  0  0  0  0
 23 24  4  0  0  0  0
 20 24  4  0  0  0  0
 24 25  2  0  0  0  0
 23 26  1  0  0  0  0
 26 27  1  0  0  0  0
 27 28  1  0  0  0  0
 28 29  1  0  0  0  0
 29 30  1  0  0  0  0
 22 30  1  0  0  0  0
 19 31  4  0  0  0  0
 31 32  4  0  0  0  0
 15 32  4  0  0  0  0
 32 33  1  0  0  0  0
 33 34  1  0  0  0  0
 34 35  1  0  0  0  0
 34 36  1  0  0  0  0
 36 37  1  0  0  0  0
 36 38  1  0  0  0  0
 36 39  1  0  0  0  0
M  END
> <IC50(uM)>
0.005

> <Outcome>
1.0

> <BindingDB ID>
1020638

> <BindingDB MonomerID>
490567

> <BindingDB Ligand Name>
5-fluoro-N-[2-methyl-6-(trifluoromethyl)phenyl]-4-(3-oxo-6,7-dihydro-3H,5H-[1,2,4]triazolo[3,4-c][1,4]oxazepin-2(9H)-yl)-2-{[(2S)-1,1,1-trifluoropropan-2-yl]oxy}benzamide::US10968216, Example 235

> <Curation/DataSource>
US Patent

> <Article DOI>
?

> <PMID>
?

> <Patent Number>
US10968216

> <Authors>
Gradl, SN; Nguyen, D; Eis, K; Gunther, J; Stellfeld, T; Janzer, A; Christian, S; Mueller, T; Sheikh, SE; Zhou, HJ; Zhao, C; Sykes, DB; Ferrara, SJ; Liu, K; Herbert, SA; Merz, C; Niehues, M; Nising, CF; Schafer, M; Zimmermann, K; Knablein, J; Thede, K; Faupel, T

> <Link to Ligand in BindingDB>
http://www.bindingdb.org/bind/chemsearch/marvin/MolStructure.jsp?monomerid=490567

> <Link to Ligand-Target Pair in BindingDB>
http://www.bindingdb.org/jsp/dbsearch/PrimarySearch_ki.jsp?energyterm=kJ/mole&tag=r21&monomerid=490567&enzyme=Dihydroorotate+dehydrogenase&column=ki&startPg=0&Increment=50&submit=Search

> <PubChem CID>
134474036

> <PubChem SID>
447117293

$$$$

  Mrv2115 07222212352D          

 21 22  0  0  0  0            999 V2000
    2.1434   -1.2375    0.0000 C   0  0  0  0  0  0  0  0  0  0  0  0
    1.4289   -1.6500    0.0000 O   0  0  0  0  0  0  0  0  0  0  0  0
    1.4289   -2.4750    0.0000 C   0  0  0  0  0  0  0  0  0  0  0  0
    2.1434   -2.8875    0.0000 C   0  0  0  0  0  0  0  0  0  0  0  0
    2.1434   -3.7125    0.0000 C   0  0  0  0  0  0  0  0  0  0  0  0
    1.4289   -4.1250    0.0000 C   0  0  0  0  0  0  0  0  0  0  0  0
    0.7145   -3.7125    0.0000 C   0  0  0  0  0  0  0  0  0  0  0  0
    0.7145   -2.8875    0.0000 C   0  0  0  0  0  0  0  0  0  0  0  0
    0.0000   -2.4750    0.0000 C   0  0  0  0  0  0  0  0  0  0  0  0
   -0.7145   -2.8875    0.0000 C   0  0  0  0  0  0  0  0  0  0  0  0
   -1.4289   -2.4750    0.0000 C   0  0  0  0  0  0  0  0  0  0  0  0
   -2.1434   -2.8875    0.0000 C   0  0  0  0  0  0  0  0  0  0  0  0
   -2.1434   -3.7125    0.0000 C   0  0  0  0  0  0  0  0  0  0  0  0
   -2.8579   -4.1250    0.0000 O   0  0  0  0  0  0  0  0  0  0  0  0
   -1.4289   -4.1250    0.0000 O   0  0  0  0  0  0  0  0  0  0  0  0
   -2.8579   -2.4750    0.0000 N   0  0  0  0  0  0  0  0  0  0  0  0
   -2.8579   -1.6500    0.0000 C   0  0  0  0  0  0  0  0  0  0  0  0
   -3.5724   -1.2375    0.0000 O   0  0  0  0  0  0  0  0  0  0  0  0
   -2.1434   -1.2375    0.0000 N   0  0  0  0  0  0  0  0  0  0  0  0
   -1.4289   -1.6500    0.0000 C   0  0  0  0  0  0  0  0  0  0  0  0
   -0.7145   -1.2375    0.0000 O   0  0  0  0  0  0  0  0  0  0  0  0
  1  2  1  0  0  0  0
  2  3  1  0  0  0  0
  3  4  4  0  0  0  0
  4  5  4  0  0  0  0
  5  6  4  0  0  0  0
  6  7  4  0  0  0  0
  7  8  4  0  0  0  0
  3  8  4  0  0  0  0
  8  9  1  0  0  0  0
  9 10  1  0  0  0  0
 10 11  1  0  0  0  0
 11 12  4  0  0  0  0
 12 13  1  0  0  0  0
 13 14  2  0  0  0  0
 13 15  1  0  0  0  0
 12 16  4  0  0  0  0
 16 17  4  0  0  0  0
 17 18  2  0  0  0  0
 17 19  4  0  0  0  0
 19 20  4  0  0  0  0
 11 20  4  0  0  0  0
 20 21  2  0  0  0  0
M  STY  2   1 DAT   2 DAT
M  SAL   1  1  16
M  SDT   1 MRV_IMPLICIT_H                                        
M  SDD   1     0.5304   -0.4125    DR    ALL  0       0  
M  SED   1 IMPL_H1
M  SAL   2  1  19
M  SDT   2 MRV_IMPLICIT_H                                        
M  SDD   2     0.6482   -0.4125    DR    ALL  0       0  
M  SED   2 IMPL_H1
M  END
> <IC50(uM)>
5.0

> <Outcome>
0.0

> <BindingDB ID>
50555336

> <BindingDB MonomerID>
50211788

> <BindingDB Ligand Name>
CHEMBL3908568

> <Curation/DataSource>
ChEMBL

> <Article DOI>
10.1016/j.bmc.2017.01.009

> <PMID>
28118956

> <Patent Number>
?

> <Authors>
Inaoka, DK; Iida, M; Hashimoto, S; Tabuchi, T; Kuranaga, T; Balogun, EO; Honma, T; Tanaka, A; Harada, S; Nara, T; Kita, K; Inoue, M

> <Link to Ligand in BindingDB>
http://www.bindingdb.org/bind/chemsearch/marvin/MolStructure.jsp?monomerid=50211788

> <Link to Ligand-Target Pair in BindingDB>
http://www.bindingdb.org/jsp/dbsearch/PrimarySearch_ki.jsp?energyterm=kJ/mole&tag=r21&monomerid=50211788&enzyme=Dihydroorotate+dehydrogenase&column=ki&startPg=0&Increment=50&submit=Search

> <PubChem CID>
134132231

> <PubChem SID>
375983071

$$$$

  Mrv2115 07222212352D          

 21 24  0  0  0  0            999 V2000
    6.3569    1.1104    0.0000 C   0  0  0  0  0  0  0  0  0  0  0  0
    5.6424    0.6979    0.0000 C   0  0  0  0  0  0  0  0  0  0  0  0
    5.6424   -0.1271    0.0000 C   0  0  0  0  0  0  0  0  0  0  0  0
    4.9279   -0.5396    0.0000 C   0  0  0  0  0  0  0  0  0  0  0  0
    4.9279   -1.3646    0.0000 N   0  0  0  0  0  0  0  0  0  0  0  0
    4.2135   -1.7771    0.0000 C   0  0  0  0  0  0  0  0  0  0  0  0
    4.2135   -2.6021    0.0000 C   0  0  0  0  0  0  0  0  0  0  0  0
    3.4990   -3.0146    0.0000 C   0  0  0  0  0  0  0  0  0  0  0  0
    2.7845   -2.6021    0.0000 C   0  0  0  0  0  0  0  0  0  0  0  0
    2.0701   -3.0146    0.0000 C   0  0  0  0  0  0  0  0  0  0  0  0
    1.3556   -2.6021    0.0000 C   0  0  0  0  0  0  0  0  0  0  0  0
    1.3556   -1.7771    0.0000 C   0  0  0  0  0  0  0  0  0  0  0  0
    2.0701   -1.3646    0.0000 C   0  0  0  0  0  0  0  0  0  0  0  0
    2.7845   -1.7771    0.0000 C   0  0  0  0  0  0  0  0  0  0  0  0
    3.4990   -1.3646    0.0000 C   0  0  0  0  0  0  0  0  0  0  0  0
    4.2135   -0.1271    0.0000 N   0  0  0  0  0  0  0  0  0  0  0  0
    3.4288   -0.3820    0.0000 N   0  0  0  0  0  0  0  0  0  0  0  0
    2.9439    0.2854    0.0000 C   0  0  0  0  0  0  0  0  0  0  0  0
    3.4288    0.9529    0.0000 C   0  0  0  0  0  0  0  0  0  0  0  0
    4.2135    0.6979    0.0000 C   0  0  0  0  0  0  0  0  0  0  0  0
    4.9279    1.1104    0.0000 N   0  0  0  0  0  0  0  0  0  0  0  0
  1  2  1  0  0  0  0
  2  3  4  0  0  0  0
  3  4  4  0  0  0  0
  4  5  1  0  0  0  0
  5  6  1  0  0  0  0
  6  7  4  0  0  0  0
  7  8  4  0  0  0  0
  8  9  4  0  0  0  0
  9 10  4  0  0  0  0
 10 11  4  0  0  0  0
 11 12  4  0  0  0  0
 12 13  4  0  0  0  0
 13 14  4  0  0  0  0
  9 14  4  0  0  0  0
 14 15  4  0  0  0  0
  6 15  4  0  0  0  0
  4 16  4  0  0  0  0
 16 17  4  0  0  0  0
 17 18  4  0  0  0  0
 18 19  4  0  0  0  0
 19 20  4  0  0  0  0
 16 20  4  0  0  0  0
 20 21  4  0  0  0  0
  2 21  4  0  0  0  0
M  END
> <IC50(uM)>
100.0

> <Outcome>
0.0

> <BindingDB ID>
50967538

> <BindingDB MonomerID>
50396725

> <BindingDB Ligand Name>
CHEMBL2172234

> <Curation/DataSource>
ChEMBL

> <Article DOI>
10.1021/jm300351w

> <PMID>
22877245

> <Patent Number>
?

> <Authors>
Marwaha, A; White, J; El Mazouni, F; Creason, SA; Kokkonda, S; Buckner, FS; Charman, SA; Phillips, MA; Rathod, PK

> <Link to Ligand in BindingDB>
http://www.bindingdb.org/bind/chemsearch/marvin/MolStructure.jsp?monomerid=50396725

> <Link to Ligand-Target Pair in BindingDB>
http://www.bindingdb.org/jsp/dbsearch/PrimarySearch_ki.jsp?energyterm=kJ/mole&tag=r21&monomerid=50396725&enzyme=Dihydroorotate+dehydrogenase&column=ki&startPg=0&Increment=50&submit=Search

> <PubChem CID>
44133953

> <PubChem SID>
163345749

$$$$

  Mrv2115 07222212352D          

 36 39  0  0  0  0            999 V2000
   -7.6409    0.0165    0.0000 C   0  0  0  0  0  0  0  0  0  0  0  0
   -6.8159    0.0165    0.0000 C   0  0  0  0  0  0  0  0  0  0  0  0
   -6.4034   -0.6979    0.0000 C   0  0  0  0  0  0  0  0  0  0  0  0
   -5.5784   -0.6979    0.0000 C   0  0  0  0  0  0  0  0  0  0  0  0
   -5.1659   -1.4124    0.0000 C   0  0  0  0  0  0  0  0  0  0  0  0
   -5.1659    0.0165    0.0000 C   0  0  0  0  0  0  0  0  0  0  0  0
   -4.3409    0.0165    0.0000 N   0  0  0  0  0  0  0  0  0  0  0  0
   -3.9284   -0.6979    0.0000 C   0  0  0  0  0  0  0  0  0  0  0  0
   -4.3409   -1.4124    0.0000 O   0  0  0  0  0  0  0  0  0  0  0  0
   -3.1034   -0.6979    0.0000 C   0  0  0  0  0  0  0  0  0  0  0  0
   -2.6909    0.0165    0.0000 C   0  0  0  0  0  0  0  0  0  0  0  0
   -1.8659    0.0165    0.0000 C   0  0  0  0  0  0  0  0  0  0  0  0
   -1.4534    0.7310    0.0000 F   0  0  0  0  0  0  0  0  0  0  0  0
   -1.4534   -0.6979    0.0000 C   0  0  0  0  0  0  0  0  0  0  0  0
   -0.6284   -0.6979    0.0000 N   0  0  0  0  0  0  0  0  0  0  0  0
   -0.1435   -1.3654    0.0000 N   0  0  0  0  0  0  0  0  0  0  0  0
    0.6411   -1.1104    0.0000 C   0  0  0  0  0  0  0  0  0  0  0  0
    0.6411   -0.2854    0.0000 N   0  0  0  0  0  0  0  0  0  0  0  0
   -0.1435   -0.0305    0.0000 C   0  0  0  0  0  0  0  0  0  0  0  0
   -0.3984    0.7541    0.0000 O   0  0  0  0  0  0  0  0  0  0  0  0
    1.3556    0.1271    0.0000 C   0  0  0  0  0  0  0  0  0  0  0  0
    2.0701   -0.2854    0.0000 C   0  0  0  0  0  0  0  0  0  0  0  0
    2.0701   -1.1104    0.0000 O   0  0  0  0  0  0  0  0  0  0  0  0
    1.3556   -1.5229    0.0000 C   0  0  0  0  0  0  0  0  0  0  0  0
   -1.8659   -1.4124    0.0000 C   0  0  0  0  0  0  0  0  0  0  0  0
   -2.6909   -1.4124    0.0000 C   0  0  0  0  0  0  0  0  0  0  0  0
   -3.1034   -2.1269    0.0000 O   0  0  0  0  0  0  0  0  0  0  0  0
   -2.6909   -2.8414    0.0000 C   0  0  0  0  0  0  0  0  0  0  0  0
   -1.8659   -2.8414    0.0000 C   0  0  0  0  0  0  0  0  0  0  0  0
   -3.1034   -3.5558    0.0000 C   0  0  0  0  0  0  0  0  0  0  0  0
   -3.8179   -3.1433    0.0000 F   0  0  0  0  0  0  0  0  0  0  0  0
   -2.3890   -3.9683    0.0000 F   0  0  0  0  0  0  0  0  0  0  0  0
   -3.5159   -4.2703    0.0000 F   0  0  0  0  0  0  0  0  0  0  0  0
   -5.5784    0.7310    0.0000 C   0  0  0  0  0  0  0  0  0  0  0  0
   -5.1659    1.4455    0.0000 Cl  0  0  0  0  0  0  0  0  0  0  0  0
   -6.4034    0.7310    0.0000 N   0  0  0  0  0  0  0  0  0  0  0  0
  1  2  1  0  0  0  0
  2  3  4  0  0  0  0
  3  4  4  0  0  0  0
  4  5  1  0  0  0  0
  4  6  4  0  0  0  0
  6  7  1  0  0  0  0
  7  8  1  0  0  0  0
  8  9  2  0  0  0  0
  8 10  1  0  0  0  0
 10 11  4  0  0  0  0
 11 12  4  0  0  0  0
 12 13  1  0  0  0  0
 12 14  4  0  0  0  0
 14 15  1  0  0  0  0
 15 16  4  0  0  0  0
 16 17  4  0  0  0  0
 17 18  4  0  0  0  0
 18 19  4  0  0  0  0
 15 19  4  0  0  0  0
 19 20  2  0  0  0  0
 18 21  1  0  0  0  0
 21 22  1  0  0  0  0
 22 23  1  0  0  0  0
 23 24  1  0  0  0  0
 17 24  1  0  0  0  0
 14 25  4  0  0  0  0
 25 26  4  0  0  0  0
 10 26  4  0  0  0  0
 26 27  1  0  0  0  0
 27 28  1  0  0  0  0
 28 29  1  0  0  0  0
 28 30  1  0  0  0  0
 30 31  1  0  0  0  0
 30 32  1  0  0  0  0
 30 33  1  0  0  0  0
  6 34  4  0  0  0  0
 34 35  1  0  0  0  0
 34 36  4  0  0  0  0
  2 36  4  0  0  0  0
M  END
> <IC50(uM)>
0.06

> <Outcome>
1.0

> <BindingDB ID>
1020600

> <BindingDB MonomerID>
490539

> <BindingDB Ligand Name>
N-(2-chloro-4,6-dimethylpyridin-3-yl)-5-fluoro-4-(3-oxo-5,6-dihydro-3H-[1,2,4]triazolo[3,4-c]-[1,4]oxazin-2(8H)-yl)-2-{[(2S)-1,1,1-trifluoropropan-2-yl]oxy}benzamide::US10968216, Example 207

> <Curation/DataSource>
US Patent

> <Article DOI>
?

> <PMID>
?

> <Patent Number>
US10968216

> <Authors>
Gradl, SN; Nguyen, D; Eis, K; Gunther, J; Stellfeld, T; Janzer, A; Christian, S; Mueller, T; Sheikh, SE; Zhou, HJ; Zhao, C; Sykes, DB; Ferrara, SJ; Liu, K; Herbert, SA; Merz, C; Niehues, M; Nising, CF; Schafer, M; Zimmermann, K; Knablein, J; Thede, K; Faupel, T

> <Link to Ligand in BindingDB>
http://www.bindingdb.org/bind/chemsearch/marvin/MolStructure.jsp?monomerid=490539

> <Link to Ligand-Target Pair in BindingDB>
http://www.bindingdb.org/jsp/dbsearch/PrimarySearch_ki.jsp?energyterm=kJ/mole&tag=r21&monomerid=490539&enzyme=Dihydroorotate+dehydrogenase&column=ki&startPg=0&Increment=50&submit=Search

> <PubChem CID>
134473979

> <PubChem SID>
447117265

$$$$

  Mrv2115 07222212352D          

 51 56  0  0  0  0            999 V2000
   -2.7512    0.7634    0.0000 C   0  0  0  0  0  0  0  0  0  0  0  0
   -2.0367    1.1759    0.0000 C   0  0  0  0  0  0  0  0  0  0  0  0
   -2.0367    2.0009    0.0000 C   0  0  0  0  0  0  0  0  0  0  0  0
   -1.3222    2.4134    0.0000 C   0  0  0  0  0  0  0  0  0  0  0  0
   -1.3222    3.2384    0.0000 N   0  0  0  0  0  0  0  0  0  0  0  0
   -0.6078    2.0009    0.0000 C   0  0  0  0  0  0  0  0  0  0  0  0
   -0.6078    1.1759    0.0000 C   0  0  0  0  0  0  0  0  0  0  0  0
   -1.3222    0.7634    0.0000 C   0  0  0  0  0  0  0  0  0  0  0  0
   -1.3222   -0.0616    0.0000 N   0  0  0  0  0  0  0  0  0  0  0  0
   -0.6078   -0.4741    0.0000 C   0  0  0  0  0  0  0  0  0  0  0  0
    0.1067   -0.0616    0.0000 O   0  0  0  0  0  0  0  0  0  0  0  0
   -0.6078   -1.2991    0.0000 C   0  0  0  0  0  0  0  0  0  0  0  0
    0.1067   -1.7116    0.0000 C   0  0  0  0  0  0  0  0  0  0  0  0
    0.1067   -2.5366    0.0000 C   0  0  0  0  0  0  0  0  0  0  0  0
    0.8212   -2.9491    0.0000 F   0  0  0  0  0  0  0  0  0  0  0  0
   -0.6078   -2.9491    0.0000 C   0  0  0  0  0  0  0  0  0  0  0  0
   -0.6078   -3.7741    0.0000 N   0  0  0  0  0  0  0  0  0  0  0  0
    0.0597   -4.2590    0.0000 N   0  0  0  0  0  0  0  0  0  0  0  0
   -0.1953   -5.0437    0.0000 C   0  0  0  0  0  0  0  0  0  0  0  0
    0.2897   -5.7111    0.0000 C   0  0  0  0  0  0  0  0  0  0  0  0
    1.1101   -5.6249    0.0000 C   0  0  0  0  0  0  0  0  0  0  0  0
   -0.0459   -6.4648    0.0000 N   0  0  0  0  0  0  0  0  0  0  0  0
    0.4390   -7.1322    0.0000 C   0  0  0  0  0  0  0  0  0  0  0  0
    1.2595   -7.0460    0.0000 C   0  0  0  0  0  0  0  0  0  0  0  0
    1.5951   -6.2923    0.0000 C   0  0  0  0  0  0  0  0  0  0  0  0
    2.4155   -6.2061    0.0000 C   0  0  0  0  0  0  0  0  0  0  0  0
    2.9005   -6.8735    0.0000 C   0  0  0  0  0  0  0  0  0  0  0  0
    2.5649   -7.6272    0.0000 C   0  0  0  0  0  0  0  0  0  0  0  0
    1.7444   -7.7134    0.0000 C   0  0  0  0  0  0  0  0  0  0  0  0
   -0.8664   -6.5510    0.0000 C   0  0  0  0  0  0  0  0  0  0  0  0
   -1.2019   -7.3047    0.0000 C   0  0  0  0  0  0  0  0  0  0  0  0
   -0.7170   -7.9721    0.0000 C   0  0  0  0  0  0  0  0  0  0  0  0
   -1.0526   -8.7258    0.0000 C   0  0  0  0  0  0  0  0  0  0  0  0
   -1.8731   -8.8120    0.0000 C   0  0  0  0  0  0  0  0  0  0  0  0
   -2.3580   -8.1446    0.0000 C   0  0  0  0  0  0  0  0  0  0  0  0
   -2.0224   -7.3909    0.0000 C   0  0  0  0  0  0  0  0  0  0  0  0
   -1.0203   -5.0437    0.0000 N   0  0  0  0  0  0  0  0  0  0  0  0
   -1.5052   -5.7111    0.0000 C   0  0  0  0  0  0  0  0  0  0  0  0
   -1.2752   -4.2590    0.0000 C   0  0  0  0  0  0  0  0  0  0  0  0
   -2.0598   -4.0041    0.0000 O   0  0  0  0  0  0  0  0  0  0  0  0
   -1.3222   -2.5366    0.0000 C   0  0  0  0  0  0  0  0  0  0  0  0
   -1.3222   -1.7116    0.0000 C   0  0  0  0  0  0  0  0  0  0  0  0
   -2.0367   -1.2991    0.0000 O   0  0  0  0  0  0  0  0  0  0  0  0
   -2.7512   -1.7116    0.0000 C   0  0  0  0  0  0  0  0  0  0  0  0
   -2.7512   -2.5366    0.0000 C   0  0  0  0  0  0  0  0  0  0  0  0
   -3.4656   -1.2991    0.0000 C   0  0  0  0  0  0  0  0  0  0  0  0
   -4.1801   -1.7116    0.0000 C   0  0  0  0  0  0  0  0  0  0  0  0
   -4.8946   -1.2991    0.0000 C   0  0  0  0  0  0  0  0  0  0  0  0
   -4.8946   -0.4741    0.0000 C   0  0  0  0  0  0  0  0  0  0  0  0
   -4.1801   -0.0616    0.0000 C   0  0  0  0  0  0  0  0  0  0  0  0
   -3.4656   -0.4741    0.0000 C   0  0  0  0  0  0  0  0  0  0  0  0
  1  2  1  0  0  0  0
  2  3  4  0  0  0  0
  3  4  4  0  0  0  0
  4  5  1  0  0  0  0
  4  6  4  0  0  0  0
  6  7  4  0  0  0  0
  7  8  4  0  0  0  0
  2  8  4  0  0  0  0
  8  9  1  0  0  0  0
  9 10  1  0  0  0  0
 10 11  2  0  0  0  0
 10 12  1  0  0  0  0
 12 13  4  0  0  0  0
 13 14  4  0  0  0  0
 14 15  1  0  0  0  0
 14 16  4  0  0  0  0
 16 17  1  0  0  0  0
 17 18  4  0  0  0  0
 18 19  4  0  0  0  0
 19 20  1  0  0  0  0
 20 21  1  0  0  0  0
 20 22  1  0  0  0  0
 22 23  1  0  0  0  0
 23 24  1  0  0  0  0
 24 25  4  0  0  0  0
 25 26  4  0  0  0  0
 26 27  4  0  0  0  0
 27 28  4  0  0  0  0
 28 29  4  0  0  0  0
 24 29  4  0  0  0  0
 22 30  1  0  0  0  0
 30 31  1  0  0  0  0
 31 32  4  0  0  0  0
 32 33  4  0  0  0  0
 33 34  4  0  0  0  0
 34 35  4  0  0  0  0
 35 36  4  0  0  0  0
 31 36  4  0  0  0  0
 19 37  4  0  0  0  0
 37 38  1  0  0  0  0
 37 39  4  0  0  0  0
 17 39  4  0  0  0  0
 39 40  2  0  0  0  0
 16 41  4  0  0  0  0
 41 42  4  0  0  0  0
 12 42  4  0  0  0  0
 42 43  1  0  0  0  0
 43 44  1  0  0  0  0
 44 45  1  0  0  0  0
 44 46  1  0  0  0  0
 46 47  1  0  0  0  0
 47 48  1  0  0  0  0
 48 49  1  0  0  0  0
 49 50  1  0  0  0  0
 50 51  1  0  0  0  0
 46 51  1  0  0  0  0
M  END
> <IC50(uM)>
5.9

> <Outcome>
0.0

> <BindingDB ID>
972549

> <BindingDB MonomerID>
470423

> <BindingDB Ligand Name>
US10815215, Example 91

> <Curation/DataSource>
US Patent

> <Article DOI>
?

> <PMID>
?

> <Patent Number>
US10815215

> <Authors>
Gradl, SN; Nguyen, D; Eis, K; Gunther, J; Stellfeld, T; Janzer, A; Christian, S; Muller, T; Sheikh, SE; Zhou, HJ; Zhao, C; Sykes, DB; Ferrara, SJ; Liu, K; Krober, M; Merz, C; Niehues, M; Schafer, M; Zimmermann, K; Nising, CF

> <Link to Ligand in BindingDB>
http://www.bindingdb.org/bind/chemsearch/marvin/MolStructure.jsp?monomerid=470423

> <Link to Ligand-Target Pair in BindingDB>
http://www.bindingdb.org/jsp/dbsearch/PrimarySearch_ki.jsp?energyterm=kJ/mole&tag=r21&monomerid=470423&enzyme=Dihydroorotate+dehydrogenase&column=ki&startPg=0&Increment=50&submit=Search

> <PubChem CID>
134470087

> <PubChem SID>
441609600

$$$$

  Mrv2115 07222212352D          

 25 27  0  0  0  0            999 V2000
   -2.8579   -1.6500    0.0000 C   0  0  0  0  0  0  0  0  0  0  0  0
   -2.8579   -2.4750    0.0000 C   0  0  0  0  0  0  0  0  0  0  0  0
   -2.1434   -2.8875    0.0000 C   0  0  0  0  0  0  0  0  0  0  0  0
   -2.1434   -3.7125    0.0000 C   0  0  0  0  0  0  0  0  0  0  0  0
   -2.8579   -4.1250    0.0000 C   0  0  0  0  0  0  0  0  0  0  0  0
   -3.5724   -3.7125    0.0000 C   0  0  0  0  0  0  0  0  0  0  0  0
   -3.5724   -2.8875    0.0000 C   0  0  0  0  0  0  0  0  0  0  0  0
   -4.2868   -2.4750    0.0000 C   0  0  0  0  0  0  0  0  0  0  0  0
   -5.0013   -2.8875    0.0000 C   0  0  0  0  0  0  0  0  0  0  0  0
   -5.7158   -2.4750    0.0000 C   0  0  0  0  0  0  0  0  0  0  0  0
   -6.4302   -2.8875    0.0000 F   0  0  0  0  0  0  0  0  0  0  0  0
   -5.7158   -1.6500    0.0000 C   0  0  0  0  0  0  0  0  0  0  0  0
   -6.4302   -1.2375    0.0000 N   0  0  0  0  0  0  0  0  0  0  0  0
   -7.1447   -1.6500    0.0000 C   0  0  0  0  0  0  0  0  0  0  0  0
   -7.1447   -2.4750    0.0000 N   0  0  0  0  0  0  0  0  0  0  0  0
   -7.8592   -2.8875    0.0000 C   0  0  0  0  0  0  0  0  0  0  0  0
   -8.5737   -2.4750    0.0000 C   0  0  0  0  0  0  0  0  0  0  0  0
   -8.5737   -1.6500    0.0000 C   0  0  0  0  0  0  0  0  0  0  0  0
   -7.8592   -1.2375    0.0000 C   0  0  0  0  0  0  0  0  0  0  0  0
   -7.8592   -0.4125    0.0000 C   0  0  0  0  0  0  0  0  0  0  0  0
   -7.1447   -0.0000    0.0000 O   0  0  0  0  0  0  0  0  0  0  0  0
   -8.5737   -0.0000    0.0000 O   0  0  0  0  0  0  0  0  0  0  0  0
   -5.0013   -1.2375    0.0000 C   0  0  0  0  0  0  0  0  0  0  0  0
   -5.0013   -0.4125    0.0000 F   0  0  0  0  0  0  0  0  0  0  0  0
   -4.2868   -1.6500    0.0000 C   0  0  0  0  0  0  0  0  0  0  0  0
  1  2  1  0  0  0  0
  2  3  4  0  0  0  0
  3  4  4  0  0  0  0
  4  5  4  0  0  0  0
  5  6  4  0  0  0  0
  6  7  4  0  0  0  0
  2  7  4  0  0  0  0
  7  8  1  0  0  0  0
  8  9  4  0  0  0  0
  9 10  4  0  0  0  0
 10 11  1  0  0  0  0
 10 12  4  0  0  0  0
 12 13  1  0  0  0  0
 13 14  1  0  0  0  0
 14 15  4  0  0  0  0
 15 16  4  0  0  0  0
 16 17  4  0  0  0  0
 17 18  4  0  0  0  0
 18 19  4  0  0  0  0
 14 19  4  0  0  0  0
 19 20  1  0  0  0  0
 20 21  2  0  0  0  0
 20 22  1  0  0  0  0
 12 23  4  0  0  0  0
 23 24  1  0  0  0  0
 23 25  4  0  0  0  0
  8 25  4  0  0  0  0
M  END
> <IC50(uM)>
0.011

> <Outcome>
1.0

> <BindingDB ID>
246925; 51186833

> <BindingDB MonomerID>
119832

> <BindingDB Ligand Name>
US8691852, 61

> <Curation/DataSource>
US Patent; ChEMBL

> <Article DOI>
?; 10.1007/s00044-011-9837-4

> <PMID>
?

> <Patent Number>
US8691852; ?

> <Authors>
Castro Palomino Laria, JC; Erra Sola, M; Lozoya Toribio, ME; Navarro Romero, E; n/a

> <Link to Ligand in BindingDB>
http://www.bindingdb.org/bind/chemsearch/marvin/MolStructure.jsp?monomerid=119832

> <Link to Ligand-Target Pair in BindingDB>
http://www.bindingdb.org/jsp/dbsearch/PrimarySearch_ki.jsp?energyterm=kJ/mole&tag=r21&monomerid=119832&enzyme=Dihydroorotate+dehydrogenase&column=ki&startPg=0&Increment=50&submit=Search

> <PubChem CID>
24989027

> <PubChem SID>
220230626

$$$$

  Mrv2115 07222212352D          

 21 23  0  0  0  0            999 V2000
    4.4871    1.3416    0.0000 C   0  0  0  0  0  0  0  0  0  0  0  0
    5.2016    1.7541    0.0000 C   0  0  0  0  0  0  0  0  0  0  0  0
    5.9161    1.3416    0.0000 C   0  0  0  0  0  0  0  0  0  0  0  0
    6.6306    1.7541    0.0000 N   0  0  0  0  0  0  0  0  0  0  0  0
    7.3450    1.3416    0.0000 C   0  0  0  0  0  0  0  0  0  0  0  0
    7.3450    0.5166    0.0000 O   0  0  0  0  0  0  0  0  0  0  0  0
    8.0595    1.7541    0.0000 C   0  0  0  0  0  0  0  0  0  0  0  0
    8.1457    2.5746    0.0000 C   0  0  0  0  0  0  0  0  0  0  0  0
    8.9527    2.7461    0.0000 C   0  0  0  0  0  0  0  0  0  0  0  0
    9.3652    2.0316    0.0000 C   0  0  0  0  0  0  0  0  0  0  0  0
   10.1857    1.9454    0.0000 N   0  0  0  0  0  0  0  0  0  0  0  0
   10.7377    2.5585    0.0000 C   0  0  0  0  0  0  0  0  0  0  0  0
   10.5662    3.3655    0.0000 C   0  0  0  0  0  0  0  0  0  0  0  0
   11.4914    2.2229    0.0000 N   0  0  0  0  0  0  0  0  0  0  0  0
   11.4052    1.4025    0.0000 C   0  0  0  0  0  0  0  0  0  0  0  0
   11.9572    0.7894    0.0000 C   0  0  0  0  0  0  0  0  0  0  0  0
   11.7023    0.0047    0.0000 C   0  0  0  0  0  0  0  0  0  0  0  0
   10.8953   -0.1668    0.0000 C   0  0  0  0  0  0  0  0  0  0  0  0
   10.3432    0.4463    0.0000 C   0  0  0  0  0  0  0  0  0  0  0  0
   10.5982    1.2309    0.0000 C   0  0  0  0  0  0  0  0  0  0  0  0
    8.8132    1.4185    0.0000 S   0  0  0  0  0  0  0  0  0  0  0  0
  1  2  1  0  0  0  0
  2  3  1  0  0  0  0
  3  4  1  0  0  0  0
  4  5  1  0  0  0  0
  5  6  2  0  0  0  0
  5  7  1  0  0  0  0
  7  8  4  0  0  0  0
  8  9  4  0  0  0  0
  9 10  4  0  0  0  0
 10 11  1  0  0  0  0
 11 12  4  0  0  0  0
 12 13  1  0  0  0  0
 12 14  4  0  0  0  0
 14 15  4  0  0  0  0
 15 16  4  0  0  0  0
 16 17  4  0  0  0  0
 17 18  4  0  0  0  0
 18 19  4  0  0  0  0
 19 20  4  0  0  0  0
 15 20  4  0  0  0  0
 11 20  4  0  0  0  0
 10 21  4  0  0  0  0
  7 21  4  0  0  0  0
M  END
> <IC50(uM)>
30.0

> <Outcome>
0.0

> <BindingDB ID>
248389

> <BindingDB MonomerID>
120286

> <BindingDB Ligand Name>
US8703811, 12

> <Curation/DataSource>
US Patent

> <Article DOI>
?

> <PMID>
?

> <Patent Number>
US8703811

> <Authors>
Bastos, C; Booker, ML; Celatka, CA; Clardy, JC; Cortese, J; Patel, VP; Skerlj, R; Wiegand, RC; Wirth, DF

> <Link to Ligand in BindingDB>
http://www.bindingdb.org/bind/chemsearch/marvin/MolStructure.jsp?monomerid=120286

> <Link to Ligand-Target Pair in BindingDB>
http://www.bindingdb.org/jsp/dbsearch/PrimarySearch_ki.jsp?energyterm=kJ/mole&tag=r21&monomerid=120286&enzyme=Dihydroorotate+dehydrogenase&column=ki&startPg=0&Increment=50&submit=Search

> <PubChem CID>
44480862

> <PubChem SID>
220231080

$$$$

  Mrv2115 07222212352D          

 18 19  0  0  0  0            999 V2000
   -0.7145   -3.7125    0.0000 C   0  0  0  0  0  0  0  0  0  0  0  0
   -0.7145   -2.8875    0.0000 C   0  0  0  0  0  0  0  0  0  0  0  0
   -1.4289   -2.4750    0.0000 C   0  0  0  0  0  0  0  0  0  0  0  0
    0.0000   -2.4750    0.0000 C   0  0  0  0  0  0  0  0  0  0  0  0
    0.0000   -1.6500    0.0000 C   0  0  0  0  0  0  0  0  0  0  0  0
    0.7145   -1.2375    0.0000 C   0  0  0  0  0  0  0  0  0  0  0  0
    0.7145   -0.4125    0.0000 C   0  0  0  0  0  0  0  0  0  0  0  0
    0.0000    0.0000    0.0000 O   0  0  0  0  0  0  0  0  0  0  0  0
    1.4289    0.0000    0.0000 C   0  0  0  0  0  0  0  0  0  0  0  0
    1.4289    0.8250    0.0000 O   0  0  0  0  0  0  0  0  0  0  0  0
    2.1434   -0.4125    0.0000 C   0  0  0  0  0  0  0  0  0  0  0  0
    2.8579    0.0000    0.0000 C   0  0  0  0  0  0  0  0  0  0  0  0
    3.5724   -0.4125    0.0000 C   0  0  0  0  0  0  0  0  0  0  0  0
    3.5724   -1.2375    0.0000 C   0  0  0  0  0  0  0  0  0  0  0  0
    2.8579   -1.6500    0.0000 C   0  0  0  0  0  0  0  0  0  0  0  0
    2.1434   -1.2375    0.0000 C   0  0  0  0  0  0  0  0  0  0  0  0
    1.4289   -1.6500    0.0000 C   0  0  0  0  0  0  0  0  0  0  0  0
    1.4289   -2.4750    0.0000 O   0  0  0  0  0  0  0  0  0  0  0  0
  1  2  1  0  0  0  0
  2  3  1  0  0  0  0
  2  4  2  0  0  0  0
  4  5  1  0  0  0  0
  5  6  1  0  0  0  0
  6  7  1  0  0  0  0
  7  8  2  0  0  0  0
  7  9  1  0  0  0  0
  9 10  2  0  0  0  0
  9 11  1  0  0  0  0
 11 12  4  0  0  0  0
 12 13  4  0  0  0  0
 13 14  4  0  0  0  0
 14 15  4  0  0  0  0
 15 16  4  0  0  0  0
 11 16  4  0  0  0  0
 16 17  1  0  0  0  0
  6 17  1  0  0  0  0
 17 18  2  0  0  0  0
M  END
> <IC50(uM)>
0.1

> <Outcome>
1.0

> <BindingDB ID>
51282871

> <BindingDB MonomerID>
50384788

> <BindingDB Ligand Name>
LAPACHOL

> <Curation/DataSource>
ChEMBL

> <Article DOI>
10.1016/j.ejmech.2019.02.018

> <PMID>
30776695

> <Patent Number>
?

> <Authors>
Calil, FA; David, JS; Chiappetta, ERC; Fumagalli, F; Mello, RB; Leite, FHA; Castilho, MS; Emery, FS; Nonato, MC

> <Link to Ligand in BindingDB>
http://www.bindingdb.org/bind/chemsearch/marvin/MolStructure.jsp?monomerid=50384788

> <Link to Ligand-Target Pair in BindingDB>
http://www.bindingdb.org/jsp/dbsearch/PrimarySearch_ki.jsp?energyterm=kJ/mole&tag=r21&monomerid=50384788&enzyme=Dihydroorotate+dehydrogenase&column=ki&startPg=0&Increment=50&submit=Search

> <PubChem CID>
44483359

> <PubChem SID>
160863871

$$$$

  Mrv2115 07222212352D          

 35 38  0  0  0  0            999 V2000
   -3.1034    2.1599    0.0000 C   0  0  0  0  0  0  0  0  0  0  0  0
   -2.6909    1.4455    0.0000 C   0  0  0  0  0  0  0  0  0  0  0  0
   -3.1034    0.7310    0.0000 O   0  0  0  0  0  0  0  0  0  0  0  0
   -2.6909    0.0165    0.0000 C   0  0  0  0  0  0  0  0  0  0  0  0
   -1.8659    0.0165    0.0000 C   0  0  0  0  0  0  0  0  0  0  0  0
   -1.4534   -0.6979    0.0000 C   0  0  0  0  0  0  0  0  0  0  0  0
   -0.6284   -0.6979    0.0000 N   0  0  0  0  0  0  0  0  0  0  0  0
   -0.1435   -1.3654    0.0000 N   0  0  0  0  0  0  0  0  0  0  0  0
    0.6411   -1.1104    0.0000 C   0  0  0  0  0  0  0  0  0  0  0  0
    0.6411   -0.2854    0.0000 N   0  0  0  0  0  0  0  0  0  0  0  0
   -0.1435   -0.0305    0.0000 C   0  0  0  0  0  0  0  0  0  0  0  0
   -0.3984    0.7541    0.0000 O   0  0  0  0  0  0  0  0  0  0  0  0
    1.3556    0.1271    0.0000 C   0  0  0  0  0  0  0  0  0  0  0  0
    2.0701   -0.2854    0.0000 C   0  0  0  0  0  0  0  0  0  0  0  0
    2.0701   -1.1104    0.0000 C   0  0  0  0  0  0  0  0  0  0  0  0
    1.3556   -1.5229    0.0000 C   0  0  0  0  0  0  0  0  0  0  0  0
   -1.8659   -1.4124    0.0000 C   0  0  0  0  0  0  0  0  0  0  0  0
   -1.4534   -2.1269    0.0000 F   0  0  0  0  0  0  0  0  0  0  0  0
   -2.6909   -1.4124    0.0000 C   0  0  0  0  0  0  0  0  0  0  0  0
   -3.1034   -0.6979    0.0000 C   0  0  0  0  0  0  0  0  0  0  0  0
   -3.9284   -0.6979    0.0000 C   0  0  0  0  0  0  0  0  0  0  0  0
   -4.3409   -1.4124    0.0000 O   0  0  0  0  0  0  0  0  0  0  0  0
   -4.3409    0.0165    0.0000 N   0  0  0  0  0  0  0  0  0  0  0  0
   -5.1659    0.0165    0.0000 C   0  0  0  0  0  0  0  0  0  0  0  0
   -5.5784   -0.6979    0.0000 C   0  0  0  0  0  0  0  0  0  0  0  0
   -6.4034   -0.6979    0.0000 C   0  0  0  0  0  0  0  0  0  0  0  0
   -6.8159    0.0165    0.0000 C   0  0  0  0  0  0  0  0  0  0  0  0
   -6.4034    0.7310    0.0000 C   0  0  0  0  0  0  0  0  0  0  0  0
   -6.8159    1.4455    0.0000 C   0  0  0  0  0  0  0  0  0  0  0  0
   -7.6409    1.4455    0.0000 O   0  0  0  0  0  0  0  0  0  0  0  0
   -5.5784    0.7310    0.0000 C   0  0  0  0  0  0  0  0  0  0  0  0
   -1.8659    1.4455    0.0000 C   0  0  0  0  0  0  0  0  0  0  0  0
   -1.8659    0.6205    0.0000 F   0  0  0  0  0  0  0  0  0  0  0  0
   -1.8659    2.2705    0.0000 F   0  0  0  0  0  0  0  0  0  0  0  0
   -1.0409    1.4455    0.0000 F   0  0  0  0  0  0  0  0  0  0  0  0
  1  2  1  0  0  0  0
  2  3  1  0  0  0  0
  3  4  1  0  0  0  0
  4  5  4  0  0  0  0
  5  6  4  0  0  0  0
  6  7  1  0  0  0  0
  7  8  4  0  0  0  0
  8  9  4  0  0  0  0
  9 10  4  0  0  0  0
 10 11  4  0  0  0  0
  7 11  4  0  0  0  0
 11 12  2  0  0  0  0
 10 13  1  0  0  0  0
 13 14  1  0  0  0  0
 14 15  1  0  0  0  0
 15 16  1  0  0  0  0
  9 16  1  0  0  0  0
  6 17  4  0  0  0  0
 17 18  1  0  0  0  0
 17 19  4  0  0  0  0
 19 20  4  0  0  0  0
  4 20  4  0  0  0  0
 20 21  1  0  0  0  0
 21 22  2  0  0  0  0
 21 23  1  0  0  0  0
 23 24  1  0  0  0  0
 24 25  4  0  0  0  0
 25 26  4  0  0  0  0
 26 27  4  0  0  0  0
 27 28  4  0  0  0  0
 28 29  1  0  0  0  0
 29 30  1  0  0  0  0
 28 31  4  0  0  0  0
 24 31  4  0  0  0  0
  2 32  1  0  0  0  0
 32 33  1  0  0  0  0
 32 34  1  0  0  0  0
 32 35  1  0  0  0  0
M  END
> <IC50(uM)>
2.4

> <Outcome>
0.0

> <BindingDB ID>
1020478

> <BindingDB MonomerID>
490426

> <BindingDB Ligand Name>
5-fluoro-N-[3-(hydroxymethyl)phenyl]-4-(3-oxo-5,6,7,8-tetrahydro[1,2,4]triazolo[4,3-a]pyridin-2(3H)-yl)-2-{[(2S)-1,1,1-trifluoropropan-2-yl]oxy}benzamide::US10968216, Example 94

> <Curation/DataSource>
US Patent

> <Article DOI>
?

> <PMID>
?

> <Patent Number>
US10968216

> <Authors>
Gradl, SN; Nguyen, D; Eis, K; Gunther, J; Stellfeld, T; Janzer, A; Christian, S; Mueller, T; Sheikh, SE; Zhou, HJ; Zhao, C; Sykes, DB; Ferrara, SJ; Liu, K; Herbert, SA; Merz, C; Niehues, M; Nising, CF; Schafer, M; Zimmermann, K; Knablein, J; Thede, K; Faupel, T

> <Link to Ligand in BindingDB>
http://www.bindingdb.org/bind/chemsearch/marvin/MolStructure.jsp?monomerid=490426

> <Link to Ligand-Target Pair in BindingDB>
http://www.bindingdb.org/jsp/dbsearch/PrimarySearch_ki.jsp?energyterm=kJ/mole&tag=r21&monomerid=490426&enzyme=Dihydroorotate+dehydrogenase&column=ki&startPg=0&Increment=50&submit=Search

> <PubChem CID>
142335878

> <PubChem SID>
447117153

$$$$

  Mrv2115 07222212352D          

 28 32  0  0  0  0            999 V2000
    1.4358   -2.7631    0.0000 O   0  0  0  0  0  0  0  0  0  0  0  0
    0.8838   -2.1500    0.0000 C   0  0  0  0  0  0  0  0  0  0  0  0
    0.0768   -2.3215    0.0000 N   0  0  0  0  0  0  0  0  0  0  0  0
   -0.1781   -3.1062    0.0000 C   0  0  0  0  0  0  0  0  0  0  0  0
    0.3739   -3.7192    0.0000 C   0  0  0  0  0  0  0  0  0  0  0  0
    0.1190   -4.5039    0.0000 C   0  0  0  0  0  0  0  0  0  0  0  0
   -0.6880   -4.6754    0.0000 C   0  0  0  0  0  0  0  0  0  0  0  0
   -1.2400   -4.0623    0.0000 C   0  0  0  0  0  0  0  0  0  0  0  0
   -0.9851   -3.2777    0.0000 C   0  0  0  0  0  0  0  0  0  0  0  0
   -1.6525   -2.7928    0.0000 C   0  0  0  0  0  0  0  0  0  0  0  0
   -2.3200   -3.2777    0.0000 N   0  0  0  0  0  0  0  0  0  0  0  0
   -2.0650   -4.0623    0.0000 N   0  0  0  0  0  0  0  0  0  0  0  0
   -2.5500   -4.7297    0.0000 C   0  0  0  0  0  0  0  0  0  0  0  0
   -2.2144   -5.4834    0.0000 C   0  0  0  0  0  0  0  0  0  0  0  0
   -2.6993   -6.1509    0.0000 C   0  0  0  0  0  0  0  0  0  0  0  0
   -3.5198   -6.0646    0.0000 C   0  0  0  0  0  0  0  0  0  0  0  0
   -3.8554   -5.3109    0.0000 C   0  0  0  0  0  0  0  0  0  0  0  0
   -3.3704   -4.6435    0.0000 C   0  0  0  0  0  0  0  0  0  0  0  0
   -3.7060   -3.8898    0.0000 F   0  0  0  0  0  0  0  0  0  0  0  0
    1.1387   -1.3654    0.0000 C   0  0  0  0  0  0  0  0  0  0  0  0
    0.6538   -0.6979    0.0000 N   0  0  0  0  0  0  0  0  0  0  0  0
    1.1387   -0.0305    0.0000 C   0  0  0  0  0  0  0  0  0  0  0  0
    1.9233   -0.2854    0.0000 C   0  0  0  0  0  0  0  0  0  0  0  0
    2.6378    0.1271    0.0000 C   0  0  0  0  0  0  0  0  0  0  0  0
    3.3523   -0.2854    0.0000 C   0  0  0  0  0  0  0  0  0  0  0  0
    3.3523   -1.1104    0.0000 C   0  0  0  0  0  0  0  0  0  0  0  0
    2.6378   -1.5229    0.0000 C   0  0  0  0  0  0  0  0  0  0  0  0
    1.9233   -1.1104    0.0000 N   0  0  0  0  0  0  0  0  0  0  0  0
  1  2  2  0  0  0  0
  2  3  1  0  0  0  0
  3  4  1  0  0  0  0
  4  5  1  0  0  0  0
  5  6  1  0  0  0  0
  6  7  1  0  0  0  0
  7  8  1  0  0  0  0
  8  9  4  0  0  0  0
  4  9  1  0  0  0  0
  9 10  4  0  0  0  0
 10 11  4  0  0  0  0
 11 12  4  0  0  0  0
  8 12  4  0  0  0  0
 12 13  1  0  0  0  0
 13 14  4  0  0  0  0
 14 15  4  0  0  0  0
 15 16  4  0  0  0  0
 16 17  4  0  0  0  0
 17 18  4  0  0  0  0
 13 18  4  0  0  0  0
 18 19  1  0  0  0  0
  2 20  1  0  0  0  0
 20 21  4  0  0  0  0
 21 22  4  0  0  0  0
 22 23  4  0  0  0  0
 23 24  4  0  0  0  0
 24 25  4  0  0  0  0
 25 26  4  0  0  0  0
 26 27  4  0  0  0  0
 27 28  4  0  0  0  0
 20 28  4  0  0  0  0
 23 28  4  0  0  0  0
M  END
> <IC50(uM)>
0.00715

> <Outcome>
1.0

> <BindingDB ID>
51334966; 993116

> <BindingDB MonomerID>
477618

> <BindingDB Ligand Name>
(R)??N-(1-(2-fluorophenyl)-4,5,6,7-tetrahydro-1H-indazol-4-yl)imidazo[1,5-a]pyridine-3-carboxamide::US10889564, Example 48

> <Curation/DataSource>
ChEMBL; US Patent

> <Article DOI>
10.1021/acs.jmedchem.9b01658; ?

> <PMID>
32212728; ?

> <Patent Number>
?; US10889564

> <Authors>
Popova, G; Ladds, MJGW; Johansson, L; Saleh, A; Larsson, J; Sandberg, L; Sahlberg, SH; Qian, W; Gullberg, H; Garg, N; Gustavsson, AL; Haraldsson, M; Lane, D; Yngve, U; Lain, S; Lain, S; Drummond, C; Leeuwen, IV; Haraldsson, M; Johansson, L; Sandberg, L; Yngve, U

> <Link to Ligand in BindingDB>
http://www.bindingdb.org/bind/chemsearch/marvin/MolStructure.jsp?monomerid=477618

> <Link to Ligand-Target Pair in BindingDB>
http://www.bindingdb.org/jsp/dbsearch/PrimarySearch_ki.jsp?energyterm=kJ/mole&tag=r21&monomerid=477618&enzyme=Dihydroorotate+dehydrogenase&column=ki&startPg=0&Increment=50&submit=Search

> <PubChem CID>
129104749

> <PubChem SID>
442137235

$$$$

  Mrv2115 07222212352D          

 31 35  0  0  0  0            999 V2000
    4.0668    2.3479    0.0000 C   0  0  0  0  0  0  0  0  0  0  0  0
    3.3523    1.9354    0.0000 C   0  0  0  0  0  0  0  0  0  0  0  0
    3.3523    1.1104    0.0000 C   0  0  0  0  0  0  0  0  0  0  0  0
    2.6378    0.6979    0.0000 C   0  0  0  0  0  0  0  0  0  0  0  0
    2.6378   -0.1271    0.0000 C   0  0  0  0  0  0  0  0  0  0  0  0
    3.3053   -0.6120    0.0000 N   0  0  0  0  0  0  0  0  0  0  0  0
    3.0503   -1.3966    0.0000 N   0  0  0  0  0  0  0  0  0  0  0  0
    2.2253   -1.3966    0.0000 N   0  0  0  0  0  0  0  0  0  0  0  0
    1.9704   -0.6120    0.0000 N   0  0  0  0  0  0  0  0  0  0  0  0
    1.9233    1.1104    0.0000 C   0  0  0  0  0  0  0  0  0  0  0  0
    1.1387    0.8555    0.0000 N   0  0  0  0  0  0  0  0  0  0  0  0
    0.6538    1.5229    0.0000 C   0  0  0  0  0  0  0  0  0  0  0  0
   -0.1712    1.5229    0.0000 C   0  0  0  0  0  0  0  0  0  0  0  0
   -0.5837    0.8085    0.0000 C   0  0  0  0  0  0  0  0  0  0  0  0
   -0.1712    0.0940    0.0000 F   0  0  0  0  0  0  0  0  0  0  0  0
   -1.4087    0.8085    0.0000 C   0  0  0  0  0  0  0  0  0  0  0  0
   -1.8212    0.0940    0.0000 F   0  0  0  0  0  0  0  0  0  0  0  0
   -1.8212    1.5229    0.0000 C   0  0  0  0  0  0  0  0  0  0  0  0
   -2.6462    1.5229    0.0000 C   0  0  0  0  0  0  0  0  0  0  0  0
   -3.0587    0.8085    0.0000 C   0  0  0  0  0  0  0  0  0  0  0  0
   -3.8837    0.8085    0.0000 C   0  0  0  0  0  0  0  0  0  0  0  0
   -4.2962    1.5229    0.0000 C   0  0  0  0  0  0  0  0  0  0  0  0
   -3.8837    2.2374    0.0000 C   0  0  0  0  0  0  0  0  0  0  0  0
   -3.0587    2.2374    0.0000 C   0  0  0  0  0  0  0  0  0  0  0  0
   -1.4087    2.2374    0.0000 C   0  0  0  0  0  0  0  0  0  0  0  0
   -1.8212    2.9519    0.0000 F   0  0  0  0  0  0  0  0  0  0  0  0
   -0.5837    2.2374    0.0000 C   0  0  0  0  0  0  0  0  0  0  0  0
   -0.1712    2.9519    0.0000 F   0  0  0  0  0  0  0  0  0  0  0  0
    1.1387    2.1904    0.0000 N   0  0  0  0  0  0  0  0  0  0  0  0
    1.9233    1.9354    0.0000 C   0  0  0  0  0  0  0  0  0  0  0  0
    2.6378    2.3479    0.0000 C   0  0  0  0  0  0  0  0  0  0  0  0
  1  2  1  0  0  0  0
  2  3  4  0  0  0  0
  3  4  4  0  0  0  0
  4  5  1  0  0  0  0
  5  6  4  0  0  0  0
  6  7  4  0  0  0  0
  7  8  4  0  0  0  0
  8  9  4  0  0  0  0
  5  9  4  0  0  0  0
  4 10  4  0  0  0  0
 10 11  4  0  0  0  0
 11 12  4  0  0  0  0
 12 13  1  0  0  0  0
 13 14  4  0  0  0  0
 14 15  1  0  0  0  0
 14 16  4  0  0  0  0
 16 17  1  0  0  0  0
 16 18  4  0  0  0  0
 18 19  1  0  0  0  0
 19 20  4  0  0  0  0
 20 21  4  0  0  0  0
 21 22  4  0  0  0  0
 22 23  4  0  0  0  0
 23 24  4  0  0  0  0
 19 24  4  0  0  0  0
 18 25  4  0  0  0  0
 25 26  1  0  0  0  0
 25 27  4  0  0  0  0
 13 27  4  0  0  0  0
 27 28  1  0  0  0  0
 12 29  4  0  0  0  0
 29 30  4  0  0  0  0
 10 30  4  0  0  0  0
 30 31  4  0  0  0  0
  2 31  4  0  0  0  0
M  STY  2   1 DAT   2 DAT
M  SAL   1  1   9
M  SDT   1 MRV_IMPLICIT_H                                        
M  SDD   1     0.5304   -0.4125    DR    ALL  0       0  
M  SED   1 IMPL_H1
M  SAL   2  1  29
M  SDT   2 MRV_IMPLICIT_H                                        
M  SDD   2     0.5304   -0.4125    DR    ALL  0       0  
M  SED   2 IMPL_H1
M  END
> <IC50(uM)>
1.2

> <Outcome>
0.0

> <BindingDB ID>
297805

> <BindingDB MonomerID>
155461

> <BindingDB Ligand Name>
US9006454, I103

> <Curation/DataSource>
US Patent

> <Article DOI>
?

> <PMID>
?

> <Patent Number>
US9006454

> <Authors>
Thunuguntla, SS; Subramanya, H; Kunnam, SR; Sanivaru Vijay, SR; Bingi, C; Kusanur, R; Schwarz, M; Arlt, M

> <Link to Ligand in BindingDB>
http://www.bindingdb.org/bind/chemsearch/marvin/MolStructure.jsp?monomerid=155461

> <Link to Ligand-Target Pair in BindingDB>
http://www.bindingdb.org/jsp/dbsearch/PrimarySearch_ki.jsp?energyterm=kJ/mole&tag=r21&monomerid=155461&enzyme=Dihydroorotate+dehydrogenase&column=ki&startPg=0&Increment=50&submit=Search

> <PubChem CID>
58073853

> <PubChem SID>
253658398

$$$$

  Mrv2115 07222212352D          

 19 21  0  0  0  0            999 V2000
   -0.2934    3.3000    0.0000 C   0  0  0  0  0  0  0  0  0  0  0  0
    0.4210    3.7125    0.0000 C   0  0  0  0  0  0  0  0  0  0  0  0
    1.1355    3.3000    0.0000 C   0  0  0  0  0  0  0  0  0  0  0  0
    1.8500    3.7125    0.0000 C   0  0  0  0  0  0  0  0  0  0  0  0
    2.5645    3.3000    0.0000 C   0  0  0  0  0  0  0  0  0  0  0  0
    2.5645    2.4750    0.0000 C   0  0  0  0  0  0  0  0  0  0  0  0
    3.2789    2.0625    0.0000 N   0  0  0  0  0  0  0  0  0  0  0  0
    3.2789    1.2375    0.0000 C   0  0  0  0  0  0  0  0  0  0  0  0
    3.9934    0.8250    0.0000 C   0  0  0  0  0  0  0  0  0  0  0  0
    3.9934    0.0000    0.0000 C   0  0  0  0  0  0  0  0  0  0  0  0
    4.7079   -0.4125    0.0000 C   0  0  0  0  0  0  0  0  0  0  0  0
    3.2789   -0.4125    0.0000 N   0  0  0  0  0  0  0  0  0  0  0  0
    2.5645    0.0000    0.0000 C   0  0  0  0  0  0  0  0  0  0  0  0
    1.7798   -0.2549    0.0000 N   0  0  0  0  0  0  0  0  0  0  0  0
    1.2949    0.4125    0.0000 C   0  0  0  0  0  0  0  0  0  0  0  0
    1.7798    1.0799    0.0000 N   0  0  0  0  0  0  0  0  0  0  0  0
    2.5645    0.8250    0.0000 N   0  0  0  0  0  0  0  0  0  0  0  0
    1.8500    2.0625    0.0000 C   0  0  0  0  0  0  0  0  0  0  0  0
    1.1355    2.4750    0.0000 C   0  0  0  0  0  0  0  0  0  0  0  0
  1  2  1  0  0  0  0
  2  3  1  0  0  0  0
  3  4  4  0  0  0  0
  4  5  4  0  0  0  0
  5  6  4  0  0  0  0
  6  7  1  0  0  0  0
  7  8  1  0  0  0  0
  8  9  4  0  0  0  0
  9 10  4  0  0  0  0
 10 11  1  0  0  0  0
 10 12  4  0  0  0  0
 12 13  4  0  0  0  0
 13 14  4  0  0  0  0
 14 15  4  0  0  0  0
 15 16  4  0  0  0  0
 16 17  4  0  0  0  0
  8 17  4  0  0  0  0
 13 17  4  0  0  0  0
  6 18  4  0  0  0  0
 18 19  4  0  0  0  0
  3 19  4  0  0  0  0
M  END
> <IC50(uM)>
100.0

> <Outcome>
0.0

> <BindingDB ID>
50643147

> <BindingDB MonomerID>
50345402

> <BindingDB Ligand Name>
CHEMBL1714424::N-(4-Ethylphenyl)-5-methyl-[1,2,4]triazolo[1,5-a]pyrimidin-7-amine

> <Curation/DataSource>
ChEMBL

> <Article DOI>
10.1021/jm200265b

> <PMID>
21517059

> <Patent Number>
?

> <Authors>
Gujjar, R; El Mazouni, F; White, KL; White, J; Creason, S; Shackleford, DM; Deng, X; Charman, WN; Bathurst, I; Burrows, J; Floyd, DM; Matthews, D; Buckner, FS; Charman, SA; Phillips, MA; Rathod, PK

> <Link to Ligand in BindingDB>
http://www.bindingdb.org/bind/chemsearch/marvin/MolStructure.jsp?monomerid=50345402

> <Link to Ligand-Target Pair in BindingDB>
http://www.bindingdb.org/jsp/dbsearch/PrimarySearch_ki.jsp?energyterm=kJ/mole&tag=r21&monomerid=50345402&enzyme=Dihydroorotate+dehydrogenase&column=ki&startPg=0&Increment=50&submit=Search

> <PubChem CID>
777191

> <PubChem SID>
131348338

$$$$

  Mrv2115 07222212352D          

 27 29  0  0  0  0            999 V2000
   -2.1434   -1.2375    0.0000 C   0  0  0  0  0  0  0  0  0  0  0  0
   -2.1434   -0.4125    0.0000 N   0  0  0  0  0  0  0  0  0  0  0  0
   -2.8579    0.0000    0.0000 C   0  0  0  0  0  0  0  0  0  0  0  0
   -1.4289    0.0000    0.0000 C   0  0  0  0  0  0  0  0  0  0  0  0
   -0.7145   -0.4125    0.0000 O   0  0  0  0  0  0  0  0  0  0  0  0
   -1.4289    0.8250    0.0000 C   0  0  0  0  0  0  0  0  0  0  0  0
   -2.1434    1.2375    0.0000 C   0  0  0  0  0  0  0  0  0  0  0  0
   -2.1434    2.0625    0.0000 C   0  0  0  0  0  0  0  0  0  0  0  0
   -1.4289    2.4750    0.0000 C   0  0  0  0  0  0  0  0  0  0  0  0
   -0.7145    2.0625    0.0000 C   0  0  0  0  0  0  0  0  0  0  0  0
   -0.7145    1.2375    0.0000 C   0  0  0  0  0  0  0  0  0  0  0  0
    0.0000    0.8250    0.0000 C   0  0  0  0  0  0  0  0  0  0  0  0
    0.0000    0.0000    0.0000 N   0  0  0  0  0  0  0  0  0  0  0  0
    0.7145   -0.4125    0.0000 N   0  0  0  0  0  0  0  0  0  0  0  0
    1.4289   -0.0000    0.0000 C   0  0  0  0  0  0  0  0  0  0  0  0
    0.7145   -1.2375    0.0000 C   0  0  0  0  0  0  0  0  0  0  0  0
    1.3819   -1.7224    0.0000 N   0  0  0  0  0  0  0  0  0  0  0  0
    1.1270   -2.5070    0.0000 C   0  0  0  0  0  0  0  0  0  0  0  0
    1.6119   -3.1745    0.0000 C   0  0  0  0  0  0  0  0  0  0  0  0
    2.4324   -3.0882    0.0000 C   0  0  0  0  0  0  0  0  0  0  0  0
    2.9173   -3.7557    0.0000 C   0  0  0  0  0  0  0  0  0  0  0  0
    2.5817   -4.5094    0.0000 C   0  0  0  0  0  0  0  0  0  0  0  0
    1.7613   -4.5956    0.0000 C   0  0  0  0  0  0  0  0  0  0  0  0
    1.2763   -3.9282    0.0000 C   0  0  0  0  0  0  0  0  0  0  0  0
    0.4559   -4.0144    0.0000 Cl  0  0  0  0  0  0  0  0  0  0  0  0
    0.3020   -2.5070    0.0000 C   0  0  0  0  0  0  0  0  0  0  0  0
    0.0470   -1.7224    0.0000 S   0  0  0  0  0  0  0  0  0  0  0  0
  1  2  1  0  0  0  0
  2  3  1  0  0  0  0
  2  4  1  0  0  0  0
  4  5  2  0  0  0  0
  4  6  1  0  0  0  0
  6  7  4  0  0  0  0
  7  8  4  0  0  0  0
  8  9  4  0  0  0  0
  9 10  4  0  0  0  0
 10 11  4  0  0  0  0
  6 11  4  0  0  0  0
 11 12  1  0  0  0  0
 12 13  2  0  0  0  0
 13 14  1  0  0  0  0
 14 15  1  0  0  0  0
 14 16  1  0  0  0  0
 16 17  4  0  0  0  0
 17 18  4  0  0  0  0
 18 19  1  0  0  0  0
 19 20  4  0  0  0  0
 20 21  4  0  0  0  0
 21 22  4  0  0  0  0
 22 23  4  0  0  0  0
 23 24  4  0  0  0  0
 19 24  4  0  0  0  0
 24 25  1  0  0  0  0
 18 26  4  0  0  0  0
 26 27  4  0  0  0  0
 16 27  4  0  0  0  0
M  END
> <IC50(uM)>
50.0

> <Outcome>
0.0

> <BindingDB ID>
1001159

> <BindingDB MonomerID>
482845

> <BindingDB Ligand Name>
US10919869, No.  B12

> <Curation/DataSource>
US Patent

> <Article DOI>
?

> <PMID>
?

> <Patent Number>
US10919869

> <Authors>
Li, H; Xu, Y; Wang, R; Zhao, Z; Song, W; Xu, L

> <Link to Ligand in BindingDB>
http://www.bindingdb.org/bind/chemsearch/marvin/MolStructure.jsp?monomerid=482845

> <Link to Ligand-Target Pair in BindingDB>
http://www.bindingdb.org/jsp/dbsearch/PrimarySearch_ki.jsp?energyterm=kJ/mole&tag=r21&monomerid=482845&enzyme=Dihydroorotate+dehydrogenase&column=ki&startPg=0&Increment=50&submit=Search

> <PubChem CID>
132157971

> <PubChem SID>
443551985

$$$$

  Mrv2115 07222212352D          

 27 29  0  0  0  0            999 V2000
   -2.1434   -1.2375    0.0000 C   0  0  0  0  0  0  0  0  0  0  0  0
   -2.8579   -1.6500    0.0000 O   0  0  0  0  0  0  0  0  0  0  0  0
   -2.8579   -2.4750    0.0000 C   0  0  0  0  0  0  0  0  0  0  0  0
   -2.1434   -2.8875    0.0000 C   0  0  0  0  0  0  0  0  0  0  0  0
   -2.1434   -3.7125    0.0000 C   0  0  0  0  0  0  0  0  0  0  0  0
   -2.8579   -4.1250    0.0000 C   0  0  0  0  0  0  0  0  0  0  0  0
   -3.5724   -3.7125    0.0000 C   0  0  0  0  0  0  0  0  0  0  0  0
   -4.2868   -4.1250    0.0000 C   0  0  0  0  0  0  0  0  0  0  0  0
   -4.2868   -4.9500    0.0000 C   0  0  0  0  0  0  0  0  0  0  0  0
   -5.0013   -5.3625    0.0000 C   0  0  0  0  0  0  0  0  0  0  0  0
   -5.0013   -6.1875    0.0000 F   0  0  0  0  0  0  0  0  0  0  0  0
   -5.7158   -4.9500    0.0000 C   0  0  0  0  0  0  0  0  0  0  0  0
   -6.4302   -5.3625    0.0000 N   0  0  0  0  0  0  0  0  0  0  0  0
   -6.4302   -6.1875    0.0000 C   0  0  0  0  0  0  0  0  0  0  0  0
   -5.7158   -6.6000    0.0000 N   0  0  0  0  0  0  0  0  0  0  0  0
   -5.7158   -7.4250    0.0000 C   0  0  0  0  0  0  0  0  0  0  0  0
   -6.4302   -7.8375    0.0000 C   0  0  0  0  0  0  0  0  0  0  0  0
   -7.1447   -7.4250    0.0000 C   0  0  0  0  0  0  0  0  0  0  0  0
   -7.1447   -6.6000    0.0000 C   0  0  0  0  0  0  0  0  0  0  0  0
   -7.8592   -6.1875    0.0000 C   0  0  0  0  0  0  0  0  0  0  0  0
   -7.8592   -5.3625    0.0000 O   0  0  0  0  0  0  0  0  0  0  0  0
   -8.5737   -6.6000    0.0000 O   0  0  0  0  0  0  0  0  0  0  0  0
   -5.7158   -4.1250    0.0000 C   0  0  0  0  0  0  0  0  0  0  0  0
   -6.4302   -3.7125    0.0000 F   0  0  0  0  0  0  0  0  0  0  0  0
   -5.0013   -3.7125    0.0000 C   0  0  0  0  0  0  0  0  0  0  0  0
   -3.5724   -2.8875    0.0000 C   0  0  0  0  0  0  0  0  0  0  0  0
   -4.2868   -2.4750    0.0000 F   0  0  0  0  0  0  0  0  0  0  0  0
  1  2  1  0  0  0  0
  2  3  1  0  0  0  0
  3  4  4  0  0  0  0
  4  5  4  0  0  0  0
  5  6  4  0  0  0  0
  6  7  4  0  0  0  0
  7  8  1  0  0  0  0
  8  9  4  0  0  0  0
  9 10  4  0  0  0  0
 10 11  1  0  0  0  0
 10 12  4  0  0  0  0
 12 13  1  0  0  0  0
 13 14  1  0  0  0  0
 14 15  4  0  0  0  0
 15 16  4  0  0  0  0
 16 17  4  0  0  0  0
 17 18  4  0  0  0  0
 18 19  4  0  0  0  0
 14 19  4  0  0  0  0
 19 20  1  0  0  0  0
 20 21  2  0  0  0  0
 20 22  1  0  0  0  0
 12 23  4  0  0  0  0
 23 24  1  0  0  0  0
 23 25  4  0  0  0  0
  8 25  4  0  0  0  0
  7 26  4  0  0  0  0
  3 26  4  0  0  0  0
 26 27  1  0  0  0  0
M  END
> <IC50(uM)>
0.053

> <Outcome>
1.0

> <BindingDB ID>
51186838; 246915

> <BindingDB MonomerID>
119822

> <BindingDB Ligand Name>
US8691852, 45

> <Curation/DataSource>
ChEMBL; US Patent

> <Article DOI>
10.1007/s00044-011-9837-4; ?

> <PMID>
?

> <Patent Number>
?; US8691852

> <Authors>
n/a; Castro Palomino Laria, JC; Erra Sola, M; Lozoya Toribio, ME; Navarro Romero, E

> <Link to Ligand in BindingDB>
http://www.bindingdb.org/bind/chemsearch/marvin/MolStructure.jsp?monomerid=119822

> <Link to Ligand-Target Pair in BindingDB>
http://www.bindingdb.org/jsp/dbsearch/PrimarySearch_ki.jsp?energyterm=kJ/mole&tag=r21&monomerid=119822&enzyme=Dihydroorotate+dehydrogenase&column=ki&startPg=0&Increment=50&submit=Search

> <PubChem CID>
24988663

> <PubChem SID>
220230616

$$$$

  Mrv2115 07222212352D          

 36 38  0  0  0  0            999 V2000
    2.1434   -2.8875    0.0000 C   0  0  0  0  0  0  0  0  0  0  0  0
    2.1434   -3.7125    0.0000 C   0  0  0  0  0  0  0  0  0  0  0  0
    1.4289   -4.1250    0.0000 C   0  0  0  0  0  0  0  0  0  0  0  0
    1.4289   -4.9500    0.0000 N   0  0  0  0  0  0  0  0  0  0  0  0
    0.7615   -5.4349    0.0000 C   0  0  0  0  0  0  0  0  0  0  0  0
   -0.0231   -5.1800    0.0000 C   0  0  0  0  0  0  0  0  0  0  0  0
   -0.1946   -4.3730    0.0000 O   0  0  0  0  0  0  0  0  0  0  0  0
    1.0164   -6.2195    0.0000 N   0  0  0  0  0  0  0  0  0  0  0  0
    1.8414   -6.2195    0.0000 N   0  0  0  0  0  0  0  0  0  0  0  0
    2.3264   -6.8870    0.0000 C   0  0  0  0  0  0  0  0  0  0  0  0
    3.1468   -6.8007    0.0000 C   0  0  0  0  0  0  0  0  0  0  0  0
    3.6318   -7.4682    0.0000 C   0  0  0  0  0  0  0  0  0  0  0  0
    4.4522   -7.3820    0.0000 O   0  0  0  0  0  0  0  0  0  0  0  0
    4.7878   -6.6283    0.0000 C   0  0  0  0  0  0  0  0  0  0  0  0
    4.3029   -5.9608    0.0000 C   0  0  0  0  0  0  0  0  0  0  0  0
    5.6083   -6.5420    0.0000 C   0  0  0  0  0  0  0  0  0  0  0  0
    5.6945   -7.3625    0.0000 F   0  0  0  0  0  0  0  0  0  0  0  0
    5.5221   -5.7216    0.0000 F   0  0  0  0  0  0  0  0  0  0  0  0
    6.4288   -6.4558    0.0000 F   0  0  0  0  0  0  0  0  0  0  0  0
    3.2962   -8.2219    0.0000 C   0  0  0  0  0  0  0  0  0  0  0  0
    3.7811   -8.8893    0.0000 C   0  0  0  0  0  0  0  0  0  0  0  0
    3.4456   -9.6430    0.0000 O   0  0  0  0  0  0  0  0  0  0  0  0
    4.6016   -8.8031    0.0000 N   0  0  0  0  0  0  0  0  0  0  0  0
    5.0865   -9.4705    0.0000 C   0  0  0  0  0  0  0  0  0  0  0  0
    5.9070   -9.3843    0.0000 C   0  0  0  0  0  0  0  0  0  0  0  0
    6.2426   -8.6306    0.0000 C   0  0  0  0  0  0  0  0  0  0  0  0
    6.3919  -10.0517    0.0000 C   0  0  0  0  0  0  0  0  0  0  0  0
    6.0564  -10.8054    0.0000 C   0  0  0  0  0  0  0  0  0  0  0  0
    5.2359  -10.8916    0.0000 N   0  0  0  0  0  0  0  0  0  0  0  0
    4.7510  -10.2242    0.0000 C   0  0  0  0  0  0  0  0  0  0  0  0
    3.9305  -10.3104    0.0000 O   0  0  0  0  0  0  0  0  0  0  0  0
    2.4757   -8.3081    0.0000 C   0  0  0  0  0  0  0  0  0  0  0  0
    1.9908   -7.6407    0.0000 C   0  0  0  0  0  0  0  0  0  0  0  0
    1.1703   -7.7269    0.0000 F   0  0  0  0  0  0  0  0  0  0  0  0
    2.0964   -5.4349    0.0000 C   0  0  0  0  0  0  0  0  0  0  0  0
    2.8810   -5.1800    0.0000 O   0  0  0  0  0  0  0  0  0  0  0  0
  1  2  1  0  0  0  0
  2  3  1  0  0  0  0
  3  4  1  0  0  0  0
  4  5  4  0  0  0  0
  5  6  1  0  0  0  0
  6  7  1  0  0  0  0
  5  8  4  0  0  0  0
  8  9  4  0  0  0  0
  9 10  1  0  0  0  0
 10 11  4  0  0  0  0
 11 12  4  0  0  0  0
 12 13  1  0  0  0  0
 13 14  1  0  0  0  0
 14 15  1  0  0  0  0
 14 16  1  0  0  0  0
 16 17  1  0  0  0  0
 16 18  1  0  0  0  0
 16 19  1  0  0  0  0
 12 20  4  0  0  0  0
 20 21  1  0  0  0  0
 21 22  2  0  0  0  0
 21 23  1  0  0  0  0
 23 24  1  0  0  0  0
 24 25  4  0  0  0  0
 25 26  1  0  0  0  0
 25 27  4  0  0  0  0
 27 28  4  0  0  0  0
 28 29  4  0  0  0  0
 29 30  4  0  0  0  0
 24 30  4  0  0  0  0
 30 31  1  0  0  0  0
 20 32  4  0  0  0  0
 32 33  4  0  0  0  0
 10 33  4  0  0  0  0
 33 34  1  0  0  0  0
  9 35  4  0  0  0  0
  4 35  4  0  0  0  0
 35 36  2  0  0  0  0
M  END
> <IC50(uM)>
0.12

> <Outcome>
1.0

> <BindingDB ID>
1098802

> <BindingDB MonomerID>
520353

> <BindingDB Ligand Name>
5-fluoro-4-[3-(hydroxymethyl)-5-oxo-4-propyl-4,5-dihydro-1H-1,2,4-triazol-1-yl]-N-(2-methoxy-4-methylpyridin-3-yl)-2-{[(2S)-1,1,1-trifluoropropan-2-yl]oxy}benzamide::US11130745, Example 186

> <Curation/DataSource>
US Patent

> <Article DOI>
?

> <PMID>
?

> <Patent Number>
US11130745

> <Authors>
Gradl, SN; Nguyen, D; Eis, K; Gunther, J; Stellfeld, T; Janzer, A; Christian, S; Muller, T; Sheikh, SE; Sykes, DB; Ferrara, SJ; Krober, M; Merz, C; Niehues, M; Schafer, M; Zimmermann, K; Nising, CF

> <Link to Ligand in BindingDB>
http://www.bindingdb.org/bind/chemsearch/marvin/MolStructure.jsp?monomerid=520353

> <Link to Ligand-Target Pair in BindingDB>
http://www.bindingdb.org/jsp/dbsearch/PrimarySearch_ki.jsp?energyterm=kJ/mole&tag=r21&monomerid=520353&enzyme=Dihydroorotate+dehydrogenase&column=ki&startPg=0&Increment=50&submit=Search

> <PubChem CID>
?

> <PubChem SID>
?

$$$$

  Mrv2115 07222212352D          

 21 22  0  0  0  0            999 V2000
    0.0000   -4.9500    0.0000 C   0  0  0  0  0  0  0  0  0  0  0  0
    0.7145   -5.3625    0.0000 C   0  0  0  0  0  0  0  0  0  0  0  0
    0.7145   -6.1875    0.0000 O   0  0  0  0  0  0  0  0  0  0  0  0
    1.4289   -4.9500    0.0000 C   0  0  0  0  0  0  0  0  0  0  0  0
    1.4289   -4.1250    0.0000 C   0  0  0  0  0  0  0  0  0  0  0  0
    1.4289   -3.3000    0.0000 N   0  0  0  0  0  0  0  0  0  0  0  0
    2.1434   -5.3625    0.0000 C   0  0  0  0  0  0  0  0  0  0  0  0
    2.1434   -6.1875    0.0000 O   0  0  0  0  0  0  0  0  0  0  0  0
    2.8579   -4.9500    0.0000 N   0  0  0  0  0  0  0  0  0  0  0  0
    3.5724   -5.3625    0.0000 C   0  0  0  0  0  0  0  0  0  0  0  0
    4.2868   -4.9500    0.0000 C   0  0  0  0  0  0  0  0  0  0  0  0
    5.0013   -5.3625    0.0000 C   0  0  0  0  0  0  0  0  0  0  0  0
    5.0013   -6.1875    0.0000 C   0  0  0  0  0  0  0  0  0  0  0  0
    5.7158   -6.6000    0.0000 C   0  0  0  0  0  0  0  0  0  0  0  0
    6.4302   -6.1875    0.0000 C   0  0  0  0  0  0  0  0  0  0  0  0
    7.1447   -6.6000    0.0000 C   0  0  0  0  0  0  0  0  0  0  0  0
    7.1447   -7.4250    0.0000 C   0  0  0  0  0  0  0  0  0  0  0  0
    6.4302   -7.8375    0.0000 C   0  0  0  0  0  0  0  0  0  0  0  0
    5.7158   -7.4250    0.0000 C   0  0  0  0  0  0  0  0  0  0  0  0
    4.2868   -6.6000    0.0000 C   0  0  0  0  0  0  0  0  0  0  0  0
    3.5724   -6.1875    0.0000 C   0  0  0  0  0  0  0  0  0  0  0  0
  1  2  1  0  0  0  0
  2  3  2  0  0  0  0
  2  4  1  0  0  0  0
  4  5  1  0  0  0  0
  5  6  3  0  0  0  0
  4  7  1  0  0  0  0
  7  8  2  0  0  0  0
  7  9  1  0  0  0  0
  9 10  1  0  0  0  0
 10 11  4  0  0  0  0
 11 12  4  0  0  0  0
 12 13  4  0  0  0  0
 13 14  1  0  0  0  0
 14 15  4  0  0  0  0
 15 16  4  0  0  0  0
 16 17  4  0  0  0  0
 17 18  4  0  0  0  0
 18 19  4  0  0  0  0
 14 19  4  0  0  0  0
 13 20  4  0  0  0  0
 20 21  4  0  0  0  0
 10 21  4  0  0  0  0
M  END
> <IC50(uM)>
0.09

> <Outcome>
1.0

> <BindingDB ID>
52785

> <BindingDB MonomerID>
29025

> <BindingDB Ligand Name>
cyanohydroxybutenamide, 10

> <Curation/DataSource>
Curated from the literature by BindingDB

> <Article DOI>
10.1021/jm800963t

> <PMID>
19351152

> <Patent Number>
?

> <Authors>
Davies, M; Heikkil&auml;, T; McConkey, GA; Fishwick, CW; Parsons, MR; Johnson, AP

> <Link to Ligand in BindingDB>
http://www.bindingdb.org/bind/chemsearch/marvin/MolStructure.jsp?monomerid=29025

> <Link to Ligand-Target Pair in BindingDB>
http://www.bindingdb.org/jsp/dbsearch/PrimarySearch_ki.jsp?energyterm=kJ/mole&tag=r21&monomerid=29025&enzyme=Dihydroorotate+dehydrogenase&column=ki&startPg=0&Increment=50&submit=Search

> <PubChem CID>
91896052

> <PubChem SID>
81054454

$$$$

  Mrv2115 07222212352D          

 35 38  0  0  0  0            999 V2000
   -1.8212    2.1599    0.0000 C   0  0  0  0  0  0  0  0  0  0  0  0
   -1.4087    1.4455    0.0000 C   0  0  0  0  0  0  0  0  0  0  0  0
   -1.8212    0.7310    0.0000 O   0  0  0  0  0  0  0  0  0  0  0  0
   -1.4087    0.0165    0.0000 C   0  0  0  0  0  0  0  0  0  0  0  0
   -0.5837    0.0165    0.0000 C   0  0  0  0  0  0  0  0  0  0  0  0
   -0.1712   -0.6979    0.0000 C   0  0  0  0  0  0  0  0  0  0  0  0
    0.6538   -0.6979    0.0000 N   0  0  0  0  0  0  0  0  0  0  0  0
    1.1387   -0.0305    0.0000 N   0  0  0  0  0  0  0  0  0  0  0  0
    1.9233   -0.2854    0.0000 C   0  0  0  0  0  0  0  0  0  0  0  0
    2.6378    0.1271    0.0000 C   0  0  0  0  0  0  0  0  0  0  0  0
    3.3523   -0.2854    0.0000 N   0  0  0  0  0  0  0  0  0  0  0  0
    3.3523   -1.1104    0.0000 C   0  0  0  0  0  0  0  0  0  0  0  0
    2.6378   -1.5229    0.0000 C   0  0  0  0  0  0  0  0  0  0  0  0
    1.9233   -1.1104    0.0000 N   0  0  0  0  0  0  0  0  0  0  0  0
    1.1387   -1.3654    0.0000 C   0  0  0  0  0  0  0  0  0  0  0  0
    0.8838   -2.1500    0.0000 O   0  0  0  0  0  0  0  0  0  0  0  0
   -0.5837   -1.4124    0.0000 C   0  0  0  0  0  0  0  0  0  0  0  0
   -0.1712   -2.1269    0.0000 F   0  0  0  0  0  0  0  0  0  0  0  0
   -1.4087   -1.4124    0.0000 C   0  0  0  0  0  0  0  0  0  0  0  0
   -1.8212   -0.6979    0.0000 C   0  0  0  0  0  0  0  0  0  0  0  0
   -2.6462   -0.6979    0.0000 C   0  0  0  0  0  0  0  0  0  0  0  0
   -3.0587    0.0165    0.0000 O   0  0  0  0  0  0  0  0  0  0  0  0
   -3.0587   -1.4124    0.0000 N   0  0  0  0  0  0  0  0  0  0  0  0
   -3.8837   -1.4124    0.0000 C   0  0  0  0  0  0  0  0  0  0  0  0
   -4.2962   -2.1269    0.0000 C   0  0  0  0  0  0  0  0  0  0  0  0
   -3.8837   -2.8414    0.0000 F   0  0  0  0  0  0  0  0  0  0  0  0
   -5.1212   -2.1269    0.0000 C   0  0  0  0  0  0  0  0  0  0  0  0
   -5.5337   -1.4124    0.0000 C   0  0  0  0  0  0  0  0  0  0  0  0
   -5.1212   -0.6979    0.0000 C   0  0  0  0  0  0  0  0  0  0  0  0
   -4.2962   -0.6979    0.0000 C   0  0  0  0  0  0  0  0  0  0  0  0
   -3.8837    0.0165    0.0000 F   0  0  0  0  0  0  0  0  0  0  0  0
   -0.5837    1.4455    0.0000 C   0  0  0  0  0  0  0  0  0  0  0  0
   -0.5837    0.6205    0.0000 F   0  0  0  0  0  0  0  0  0  0  0  0
   -0.5837    2.2705    0.0000 F   0  0  0  0  0  0  0  0  0  0  0  0
    0.2413    1.4455    0.0000 F   0  0  0  0  0  0  0  0  0  0  0  0
  1  2  1  0  0  0  0
  2  3  1  0  0  0  0
  3  4  1  0  0  0  0
  4  5  4  0  0  0  0
  5  6  4  0  0  0  0
  6  7  1  0  0  0  0
  7  8  4  0  0  0  0
  8  9  4  0  0  0  0
  9 10  4  0  0  0  0
 10 11  4  0  0  0  0
 11 12  4  0  0  0  0
 12 13  4  0  0  0  0
 13 14  4  0  0  0  0
  9 14  4  0  0  0  0
 14 15  4  0  0  0  0
  7 15  4  0  0  0  0
 15 16  2  0  0  0  0
  6 17  4  0  0  0  0
 17 18  1  0  0  0  0
 17 19  4  0  0  0  0
 19 20  4  0  0  0  0
  4 20  4  0  0  0  0
 20 21  1  0  0  0  0
 21 22  2  0  0  0  0
 21 23  1  0  0  0  0
 23 24  1  0  0  0  0
 24 25  4  0  0  0  0
 25 26  1  0  0  0  0
 25 27  4  0  0  0  0
 27 28  4  0  0  0  0
 28 29  4  0  0  0  0
 29 30  4  0  0  0  0
 24 30  4  0  0  0  0
 30 31  1  0  0  0  0
  2 32  1  0  0  0  0
 32 33  1  0  0  0  0
 32 34  1  0  0  0  0
 32 35  1  0  0  0  0
M  END
> <IC50(uM)>
0.2

> <Outcome>
1.0

> <BindingDB ID>
1020652

> <BindingDB MonomerID>
490581

> <BindingDB Ligand Name>
N-(2,6-difluorophenyl)-5-fluoro-4-(3-oxo[1,2,4]triazolo[4,3-a]pyrazin-2(3H)-yl)-2-{[(2S)-1,1,1-trifluoropropan-2-yl]oxy}benzamide::US10968216, Example 249

> <Curation/DataSource>
US Patent

> <Article DOI>
?

> <PMID>
?

> <Patent Number>
US10968216

> <Authors>
Gradl, SN; Nguyen, D; Eis, K; Gunther, J; Stellfeld, T; Janzer, A; Christian, S; Mueller, T; Sheikh, SE; Zhou, HJ; Zhao, C; Sykes, DB; Ferrara, SJ; Liu, K; Herbert, SA; Merz, C; Niehues, M; Nising, CF; Schafer, M; Zimmermann, K; Knablein, J; Thede, K; Faupel, T

> <Link to Ligand in BindingDB>
http://www.bindingdb.org/bind/chemsearch/marvin/MolStructure.jsp?monomerid=490581

> <Link to Ligand-Target Pair in BindingDB>
http://www.bindingdb.org/jsp/dbsearch/PrimarySearch_ki.jsp?energyterm=kJ/mole&tag=r21&monomerid=490581&enzyme=Dihydroorotate+dehydrogenase&column=ki&startPg=0&Increment=50&submit=Search

> <PubChem CID>
134474451

> <PubChem SID>
447117307

$$$$

  Mrv2115 07222212352D          

 24 26  0  0  0  0            999 V2000
    2.0367    0.3509    0.0000 N   0  0  0  0  0  0  0  0  0  0  0  0
    2.0367   -0.4741    0.0000 C   0  0  0  0  0  0  0  0  0  0  0  0
    2.0367   -1.2991    0.0000 C   0  0  0  0  0  0  0  0  0  0  0  0
    2.7041   -1.7840    0.0000 C   0  0  0  0  0  0  0  0  0  0  0  0
    3.4888   -1.5291    0.0000 C   0  0  0  0  0  0  0  0  0  0  0  0
    3.6603   -0.7221    0.0000 C   0  0  0  0  0  0  0  0  0  0  0  0
    4.4449   -0.4672    0.0000 C   0  0  0  0  0  0  0  0  0  0  0  0
    5.0580   -1.0192    0.0000 N   0  0  0  0  0  0  0  0  0  0  0  0
    4.8865   -1.8262    0.0000 C   0  0  0  0  0  0  0  0  0  0  0  0
    4.1019   -2.0811    0.0000 C   0  0  0  0  0  0  0  0  0  0  0  0
    2.4492   -2.5687    0.0000 N   0  0  0  0  0  0  0  0  0  0  0  0
    1.6242   -2.5687    0.0000 N   0  0  0  0  0  0  0  0  0  0  0  0
    1.3693   -1.7840    0.0000 C   0  0  0  0  0  0  0  0  0  0  0  0
    0.5846   -1.5291    0.0000 N   0  0  0  0  0  0  0  0  0  0  0  0
    0.4131   -0.7221    0.0000 C   0  0  0  0  0  0  0  0  0  0  0  0
   -0.3715   -0.4672    0.0000 C   0  0  0  0  0  0  0  0  0  0  0  0
   -0.5430    0.3398    0.0000 C   0  0  0  0  0  0  0  0  0  0  0  0
    0.0701    0.8918    0.0000 C   0  0  0  0  0  0  0  0  0  0  0  0
   -0.1015    1.6988    0.0000 C   0  0  0  0  0  0  0  0  0  0  0  0
   -0.2730    2.5058    0.0000 F   0  0  0  0  0  0  0  0  0  0  0  0
    0.7055    1.8703    0.0000 F   0  0  0  0  0  0  0  0  0  0  0  0
   -0.9084    1.5273    0.0000 F   0  0  0  0  0  0  0  0  0  0  0  0
    0.8547    0.6369    0.0000 C   0  0  0  0  0  0  0  0  0  0  0  0
    1.0262   -0.1701    0.0000 C   0  0  0  0  0  0  0  0  0  0  0  0
  1  2  3  0  0  0  0
  2  3  1  0  0  0  0
  3  4  4  0  0  0  0
  4  5  1  0  0  0  0
  5  6  4  0  0  0  0
  6  7  4  0  0  0  0
  7  8  4  0  0  0  0
  8  9  4  0  0  0  0
  9 10  4  0  0  0  0
  5 10  4  0  0  0  0
  4 11  4  0  0  0  0
 11 12  4  0  0  0  0
 12 13  4  0  0  0  0
  3 13  4  0  0  0  0
 13 14  1  0  0  0  0
 14 15  1  0  0  0  0
 15 16  4  0  0  0  0
 16 17  4  0  0  0  0
 17 18  4  0  0  0  0
 18 19  1  0  0  0  0
 19 20  1  0  0  0  0
 19 21  1  0  0  0  0
 19 22  1  0  0  0  0
 18 23  4  0  0  0  0
 23 24  4  0  0  0  0
 15 24  4  0  0  0  0
M  STY  1   1 DAT
M  SAL   1  1  12
M  SDT   1 MRV_IMPLICIT_H                                        
M  SDD   1     0.5304   -0.4125    DR    ALL  0       0  
M  SED   1 IMPL_H1
M  END
> <IC50(uM)>
50.0

> <Outcome>
0.0

> <BindingDB ID>
50786760

> <BindingDB MonomerID>
50066578

> <BindingDB Ligand Name>
5-Pyridin-4-yl-3-(4-trifluoromethyl-phenylamino)-1H-pyrazole-4-carbonitrile::CHEMBL118645

> <Curation/DataSource>
ChEMBL

> <Article DOI>
10.1021/jm981028c

> <PMID>
9719606

> <Patent Number>
?

> <Authors>
Papageorgiou, C; Albert, R; Floersheim, P; Lemaire, M; Bitch, F; Weber, HP; Andersen, E; Hungerford, V; Schreier, MH

> <Link to Ligand in BindingDB>
http://www.bindingdb.org/bind/chemsearch/marvin/MolStructure.jsp?monomerid=50066578

> <Link to Ligand-Target Pair in BindingDB>
http://www.bindingdb.org/jsp/dbsearch/PrimarySearch_ki.jsp?energyterm=kJ/mole&tag=r21&monomerid=50066578&enzyme=Dihydroorotate+dehydrogenase&column=ki&startPg=0&Increment=50&submit=Search

> <PubChem CID>
10830186

> <PubChem SID>
103961198

$$$$

  Mrv2115 07222212352D          

 21 24  0  0  0  0            999 V2000
    5.1156   -3.2652    0.0000 C   0  0  0  0  0  0  0  0  0  0  0  0
    4.4011   -3.6777    0.0000 C   0  0  0  0  0  0  0  0  0  0  0  0
    4.4011   -4.5027    0.0000 C   0  0  0  0  0  0  0  0  0  0  0  0
    3.6866   -4.9152    0.0000 C   0  0  0  0  0  0  0  0  0  0  0  0
    3.6866   -5.7402    0.0000 N   0  0  0  0  0  0  0  0  0  0  0  0
    4.4011   -6.1527    0.0000 C   0  0  0  0  0  0  0  0  0  0  0  0
    5.1548   -5.8172    0.0000 C   0  0  0  0  0  0  0  0  0  0  0  0
    5.7068   -6.4303    0.0000 C   0  0  0  0  0  0  0  0  0  0  0  0
    6.5318   -6.4303    0.0000 C   0  0  0  0  0  0  0  0  0  0  0  0
    6.9443   -7.1447    0.0000 C   0  0  0  0  0  0  0  0  0  0  0  0
    6.5318   -7.8592    0.0000 C   0  0  0  0  0  0  0  0  0  0  0  0
    6.9443   -8.5737    0.0000 F   0  0  0  0  0  0  0  0  0  0  0  0
    5.7068   -7.8592    0.0000 C   0  0  0  0  0  0  0  0  0  0  0  0
    5.2943   -7.1447    0.0000 C   0  0  0  0  0  0  0  0  0  0  0  0
    4.4874   -6.9732    0.0000 C   0  0  0  0  0  0  0  0  0  0  0  0
    2.9722   -4.5027    0.0000 N   0  0  0  0  0  0  0  0  0  0  0  0
    2.1876   -4.7577    0.0000 N   0  0  0  0  0  0  0  0  0  0  0  0
    1.7026   -4.0902    0.0000 C   0  0  0  0  0  0  0  0  0  0  0  0
    2.1876   -3.4228    0.0000 N   0  0  0  0  0  0  0  0  0  0  0  0
    2.9722   -3.6777    0.0000 C   0  0  0  0  0  0  0  0  0  0  0  0
    3.6866   -3.2652    0.0000 N   0  0  0  0  0  0  0  0  0  0  0  0
  1  2  1  0  0  0  0
  2  3  4  0  0  0  0
  3  4  4  0  0  0  0
  4  5  1  0  0  0  0
  5  6  1  0  0  0  0
  6  7  1  0  0  0  0
  7  8  1  0  0  0  0
  8  9  4  0  0  0  0
  9 10  4  0  0  0  0
 10 11  4  0  0  0  0
 11 12  1  0  0  0  0
 11 13  4  0  0  0  0
 13 14  4  0  0  0  0
  8 14  4  0  0  0  0
 14 15  1  0  0  0  0
  6 15  1  0  0  0  0
  4 16  4  0  0  0  0
 16 17  4  0  0  0  0
 17 18  4  0  0  0  0
 18 19  4  0  0  0  0
 19 20  4  0  0  0  0
 16 20  4  0  0  0  0
 20 21  4  0  0  0  0
  2 21  4  0  0  0  0
M  END
> <IC50(uM)>
50.0

> <Outcome>
0.0

> <BindingDB ID>
50643191

> <BindingDB MonomerID>
50345389

> <BindingDB Ligand Name>
CHEMBL1784590::N-(5-Fluoro-2,3-dihydro-1H-inden-2-yl)-5-methyl-[1,2,4]triazolo-[1,5-a]pyrimidin-7-amine::US9238653, Table 5, Compound 26

> <Curation/DataSource>
ChEMBL

> <Article DOI>
10.1021/jm200265b

> <PMID>
21517059

> <Patent Number>
?

> <Authors>
Gujjar, R; El Mazouni, F; White, KL; White, J; Creason, S; Shackleford, DM; Deng, X; Charman, WN; Bathurst, I; Burrows, J; Floyd, DM; Matthews, D; Buckner, FS; Charman, SA; Phillips, MA; Rathod, PK

> <Link to Ligand in BindingDB>
http://www.bindingdb.org/bind/chemsearch/marvin/MolStructure.jsp?monomerid=50345389

> <Link to Ligand-Target Pair in BindingDB>
http://www.bindingdb.org/jsp/dbsearch/PrimarySearch_ki.jsp?energyterm=kJ/mole&tag=r21&monomerid=50345389&enzyme=Dihydroorotate+dehydrogenase&column=ki&startPg=0&Increment=50&submit=Search

> <PubChem CID>
51347247

> <PubChem SID>
131348325

$$$$

  Mrv2115 07222212352D          

 36 39  0  0  0  0            999 V2000
    0.0000   -1.6500    0.0000 C   0  0  0  0  0  0  0  0  0  0  0  0
    0.7145   -1.2375    0.0000 C   0  0  0  0  0  0  0  0  0  0  0  0
    0.7145   -0.4125    0.0000 C   0  0  0  0  0  0  0  0  0  0  0  0
    0.0000    0.0000    0.0000 C   0  0  0  0  0  0  0  0  0  0  0  0
   -0.7145   -0.4125    0.0000 O   0  0  0  0  0  0  0  0  0  0  0  0
    0.0000    0.8250    0.0000 N   0  0  0  0  0  0  0  0  0  0  0  0
   -0.7145    1.2375    0.0000 C   0  0  0  0  0  0  0  0  0  0  0  0
   -1.4289    0.8250    0.0000 C   0  0  0  0  0  0  0  0  0  0  0  0
   -1.4289    0.0000    0.0000 F   0  0  0  0  0  0  0  0  0  0  0  0
   -2.1434    1.2375    0.0000 C   0  0  0  0  0  0  0  0  0  0  0  0
   -2.1434    2.0625    0.0000 C   0  0  0  0  0  0  0  0  0  0  0  0
   -2.8579    2.4750    0.0000 C   0  0  0  0  0  0  0  0  0  0  0  0
   -3.5724    2.0625    0.0000 C   0  0  0  0  0  0  0  0  0  0  0  0
   -4.2868    2.4750    0.0000 C   0  0  0  0  0  0  0  0  0  0  0  0
   -4.2868    3.3000    0.0000 C   0  0  0  0  0  0  0  0  0  0  0  0
   -3.5724    3.7125    0.0000 C   0  0  0  0  0  0  0  0  0  0  0  0
   -3.5724    4.5375    0.0000 F   0  0  0  0  0  0  0  0  0  0  0  0
   -2.8579    3.3000    0.0000 C   0  0  0  0  0  0  0  0  0  0  0  0
   -1.4289    2.4750    0.0000 C   0  0  0  0  0  0  0  0  0  0  0  0
   -0.7145    2.0625    0.0000 C   0  0  0  0  0  0  0  0  0  0  0  0
    0.0000    2.4750    0.0000 F   0  0  0  0  0  0  0  0  0  0  0  0
    1.4289    0.0000    0.0000 N   0  0  0  0  0  0  0  0  0  0  0  0
    2.1434   -0.4125    0.0000 C   0  0  0  0  0  0  0  0  0  0  0  0
    2.8579    0.0000    0.0000 C   0  0  0  0  0  0  0  0  0  0  0  0
    3.5724   -0.4125    0.0000 C   0  0  0  0  0  0  0  0  0  0  0  0
    3.5724   -1.2375    0.0000 C   0  0  0  0  0  0  0  0  0  0  0  0
    4.2868   -1.6500    0.0000 C   0  0  0  0  0  0  0  0  0  0  0  0
    5.0013   -2.0625    0.0000 F   0  0  0  0  0  0  0  0  0  0  0  0
    3.8743   -2.3645    0.0000 F   0  0  0  0  0  0  0  0  0  0  0  0
    4.6993   -0.9355    0.0000 F   0  0  0  0  0  0  0  0  0  0  0  0
    2.8579   -1.6500    0.0000 C   0  0  0  0  0  0  0  0  0  0  0  0
    2.1434   -1.2375    0.0000 C   0  0  0  0  0  0  0  0  0  0  0  0
    1.4289   -1.6500    0.0000 C   0  0  0  0  0  0  0  0  0  0  0  0
    1.4289   -2.4750    0.0000 C   0  0  0  0  0  0  0  0  0  0  0  0
    0.7145   -2.8875    0.0000 O   0  0  0  0  0  0  0  0  0  0  0  0
    2.1434   -2.8875    0.0000 O   0  0  0  0  0  0  0  0  0  0  0  0
  1  2  1  0  0  0  0
  2  3  4  0  0  0  0
  3  4  1  0  0  0  0
  4  5  2  0  0  0  0
  4  6  1  0  0  0  0
  6  7  1  0  0  0  0
  7  8  4  0  0  0  0
  8  9  1  0  0  0  0
  8 10  4  0  0  0  0
 10 11  4  0  0  0  0
 11 12  1  0  0  0  0
 12 13  4  0  0  0  0
 13 14  4  0  0  0  0
 14 15  4  0  0  0  0
 15 16  4  0  0  0  0
 16 17  1  0  0  0  0
 16 18  4  0  0  0  0
 12 18  4  0  0  0  0
 11 19  4  0  0  0  0
 19 20  4  0  0  0  0
  7 20  4  0  0  0  0
 20 21  1  0  0  0  0
  3 22  4  0  0  0  0
 22 23  4  0  0  0  0
 23 24  4  0  0  0  0
 24 25  4  0  0  0  0
 25 26  4  0  0  0  0
 26 27  1  0  0  0  0
 27 28  1  0  0  0  0
 27 29  1  0  0  0  0
 27 30  1  0  0  0  0
 26 31  4  0  0  0  0
 31 32  4  0  0  0  0
 23 32  4  0  0  0  0
 32 33  4  0  0  0  0
  2 33  4  0  0  0  0
 33 34  1  0  0  0  0
 34 35  2  0  0  0  0
 34 36  1  0  0  0  0
M  END
> <IC50(uM)>
3.44

> <Outcome>
0.0

> <BindingDB ID>
50107539

> <BindingDB MonomerID>
50020691

> <BindingDB Ligand Name>
CHEMBL3290846

> <Curation/DataSource>
ChEMBL

> <Article DOI>
10.1016/j.ejmech.2014.05.064

> <PMID>
24929289

> <Patent Number>
?

> <Authors>
Vyas, VK; Variya, B; Ghate, MD

> <Link to Ligand in BindingDB>
http://www.bindingdb.org/bind/chemsearch/marvin/MolStructure.jsp?monomerid=50020691

> <Link to Ligand-Target Pair in BindingDB>
http://www.bindingdb.org/jsp/dbsearch/PrimarySearch_ki.jsp?energyterm=kJ/mole&tag=r21&monomerid=50020691&enzyme=Dihydroorotate+dehydrogenase&column=ki&startPg=0&Increment=50&submit=Search

> <PubChem CID>
90644866

> <PubChem SID>
103931450

$$$$

  Mrv2115 07222212352D          

 33 35  0  0  0  0            999 V2000
    0.7145   -3.7125    0.0000 C   0  0  0  0  0  0  0  0  0  0  0  0
    1.4289   -4.1250    0.0000 C   0  0  0  0  0  0  0  0  0  0  0  0
    1.4289   -4.9500    0.0000 C   0  0  0  0  0  0  0  0  0  0  0  0
    0.7615   -5.4349    0.0000 N   0  0  0  0  0  0  0  0  0  0  0  0
    1.0164   -6.2195    0.0000 N   0  0  0  0  0  0  0  0  0  0  0  0
    0.5315   -6.8870    0.0000 C   0  0  0  0  0  0  0  0  0  0  0  0
    0.8671   -7.6407    0.0000 C   0  0  0  0  0  0  0  0  0  0  0  0
    0.3822   -8.3081    0.0000 C   0  0  0  0  0  0  0  0  0  0  0  0
    0.7177   -9.0618    0.0000 O   0  0  0  0  0  0  0  0  0  0  0  0
    1.5382   -9.1480    0.0000 C   0  0  0  0  0  0  0  0  0  0  0  0
    2.0231   -8.4806    0.0000 C   0  0  0  0  0  0  0  0  0  0  0  0
    1.8738   -9.9017    0.0000 C   0  0  0  0  0  0  0  0  0  0  0  0
    1.1201  -10.2372    0.0000 F   0  0  0  0  0  0  0  0  0  0  0  0
    2.6274   -9.5661    0.0000 F   0  0  0  0  0  0  0  0  0  0  0  0
    2.2093  -10.6554    0.0000 F   0  0  0  0  0  0  0  0  0  0  0  0
   -0.4383   -8.2219    0.0000 C   0  0  0  0  0  0  0  0  0  0  0  0
   -0.9232   -8.8893    0.0000 C   0  0  0  0  0  0  0  0  0  0  0  0
   -1.7437   -8.8031    0.0000 O   0  0  0  0  0  0  0  0  0  0  0  0
   -0.5877   -9.6430    0.0000 N   0  0  0  0  0  0  0  0  0  0  0  0
   -1.0726  -10.3104    0.0000 C   0  0  0  0  0  0  0  0  0  0  0  0
   -0.7371  -11.0641    0.0000 C   0  0  0  0  0  0  0  0  0  0  0  0
   -1.2220  -11.7315    0.0000 C   0  0  0  0  0  0  0  0  0  0  0  0
   -2.0425  -11.6453    0.0000 C   0  0  0  0  0  0  0  0  0  0  0  0
   -2.3780  -10.8916    0.0000 C   0  0  0  0  0  0  0  0  0  0  0  0
   -1.8931  -10.2242    0.0000 C   0  0  0  0  0  0  0  0  0  0  0  0
   -2.2287   -9.4705    0.0000 F   0  0  0  0  0  0  0  0  0  0  0  0
   -0.7739   -7.4682    0.0000 C   0  0  0  0  0  0  0  0  0  0  0  0
   -0.2890   -6.8007    0.0000 C   0  0  0  0  0  0  0  0  0  0  0  0
   -0.6245   -6.0471    0.0000 F   0  0  0  0  0  0  0  0  0  0  0  0
    1.8414   -6.2195    0.0000 C   0  0  0  0  0  0  0  0  0  0  0  0
    2.3264   -6.8870    0.0000 O   0  0  0  0  0  0  0  0  0  0  0  0
    2.0964   -5.4349    0.0000 N   0  0  0  0  0  0  0  0  0  0  0  0
    2.8810   -5.1800    0.0000 C   0  0  0  0  0  0  0  0  0  0  0  0
  1  2  1  0  0  0  0
  2  3  1  0  0  0  0
  3  4  4  0  0  0  0
  4  5  4  0  0  0  0
  5  6  1  0  0  0  0
  6  7  4  0  0  0  0
  7  8  4  0  0  0  0
  8  9  1  0  0  0  0
  9 10  1  0  0  0  0
 10 11  1  0  0  0  0
 10 12  1  0  0  0  0
 12 13  1  0  0  0  0
 12 14  1  0  0  0  0
 12 15  1  0  0  0  0
  8 16  4  0  0  0  0
 16 17  1  0  0  0  0
 17 18  2  0  0  0  0
 17 19  1  0  0  0  0
 19 20  1  0  0  0  0
 20 21  4  0  0  0  0
 21 22  4  0  0  0  0
 22 23  4  0  0  0  0
 23 24  4  0  0  0  0
 24 25  4  0  0  0  0
 20 25  4  0  0  0  0
 25 26  1  0  0  0  0
 16 27  4  0  0  0  0
 27 28  4  0  0  0  0
  6 28  4  0  0  0  0
 28 29  1  0  0  0  0
  5 30  4  0  0  0  0
 30 31  2  0  0  0  0
 30 32  4  0  0  0  0
  3 32  4  0  0  0  0
 32 33  1  0  0  0  0
M  END
> <IC50(uM)>
0.16

> <Outcome>
1.0

> <BindingDB ID>
972536; 1098690

> <BindingDB MonomerID>
470411

> <BindingDB Ligand Name>
4-(3-ethyl-4-methyl-5-oxo-4,5-dihydro-1H-1,2,4-triazol-1-yl)-5-fluoro-N-(2-fluorophenyl)-2-{[(2S)-1,1,1-trifluoropropan-2-yl]oxy}benzamide::US10815215, Example 70; 4-(3-ethyl-4-methyl-5-oxo-4,5-dihydro-1H-1,2,4-triazol-1-yl)-5-fluoro-N-(2-fluorophenyl)-2-{[(2S)-1,1,1-trifluoropropan-2-yl]oxy}benzamide::US10815215, Example 70::US11130745, Example 70

> <Curation/DataSource>
US Patent

> <Article DOI>
?

> <PMID>
?

> <Patent Number>
US10815215; US11130745

> <Authors>
Gradl, SN; Nguyen, D; Eis, K; Gunther, J; Stellfeld, T; Janzer, A; Christian, S; Muller, T; Sheikh, SE; Zhou, HJ; Zhao, C; Sykes, DB; Ferrara, SJ; Liu, K; Krober, M; Merz, C; Niehues, M; Schafer, M; Zimmermann, K; Nising, CF; Gradl, SN; Nguyen, D; Eis, K; Gunther, J; Stellfeld, T; Janzer, A; Christian, S; Muller, T; Sheikh, SE; Sykes, DB; Ferrara, SJ; Krober, M; Merz, C; Niehues, M; Schafer, M; Zimmermann, K; Nising, CF

> <Link to Ligand in BindingDB>
http://www.bindingdb.org/bind/chemsearch/marvin/MolStructure.jsp?monomerid=470411

> <Link to Ligand-Target Pair in BindingDB>
http://www.bindingdb.org/jsp/dbsearch/PrimarySearch_ki.jsp?energyterm=kJ/mole&tag=r21&monomerid=470411&enzyme=Dihydroorotate+dehydrogenase&column=ki&startPg=0&Increment=50&submit=Search

> <PubChem CID>
134470251

> <PubChem SID>
441609588

$$$$

  Mrv2115 07222212352D          

 18 19  0  0  0  0            999 V2000
    2.1434   -1.2375    0.0000 C   0  0  0  0  0  0  0  0  0  0  0  0
    1.4289   -1.6500    0.0000 C   0  0  0  0  0  0  0  0  0  0  0  0
    1.4289   -2.4750    0.0000 C   0  0  0  0  0  0  0  0  0  0  0  0
    2.0964   -2.9599    0.0000 O   0  0  0  0  0  0  0  0  0  0  0  0
    1.8414   -3.7445    0.0000 N   0  0  0  0  0  0  0  0  0  0  0  0
    1.0164   -3.7445    0.0000 C   0  0  0  0  0  0  0  0  0  0  0  0
    0.7615   -2.9599    0.0000 C   0  0  0  0  0  0  0  0  0  0  0  0
   -0.0231   -2.7050    0.0000 C   0  0  0  0  0  0  0  0  0  0  0  0
   -0.1946   -1.8980    0.0000 S   0  0  0  0  0  0  0  0  0  0  0  0
   -0.6362   -3.2570    0.0000 N   0  0  0  0  0  0  0  0  0  0  0  0
   -1.4208   -3.0021    0.0000 C   0  0  0  0  0  0  0  0  0  0  0  0
   -2.0339   -3.5541    0.0000 C   0  0  0  0  0  0  0  0  0  0  0  0
   -2.8186   -3.2992    0.0000 C   0  0  0  0  0  0  0  0  0  0  0  0
   -2.9901   -2.4922    0.0000 C   0  0  0  0  0  0  0  0  0  0  0  0
   -3.7747   -2.2373    0.0000 C   0  0  0  0  0  0  0  0  0  0  0  0
   -4.5593   -1.9823    0.0000 N   0  0  0  0  0  0  0  0  0  0  0  0
   -2.3770   -1.9402    0.0000 C   0  0  0  0  0  0  0  0  0  0  0  0
   -1.5924   -2.1951    0.0000 C   0  0  0  0  0  0  0  0  0  0  0  0
  1  2  1  0  0  0  0
  2  3  1  0  0  0  0
  3  4  4  0  0  0  0
  4  5  4  0  0  0  0
  5  6  4  0  0  0  0
  6  7  4  0  0  0  0
  3  7  4  0  0  0  0
  7  8  1  0  0  0  0
  8  9  2  0  0  0  0
  8 10  1  0  0  0  0
 10 11  1  0  0  0  0
 11 12  4  0  0  0  0
 12 13  4  0  0  0  0
 13 14  4  0  0  0  0
 14 15  1  0  0  0  0
 15 16  3  0  0  0  0
 14 17  4  0  0  0  0
 17 18  4  0  0  0  0
 11 18  4  0  0  0  0
M  END
> <IC50(uM)>
11.0

> <Outcome>
0.0

> <BindingDB ID>
50123308

> <BindingDB MonomerID>
50071401

> <BindingDB Ligand Name>
5-Ethyl-isoxazole-4-carbothioic acid (4-cyano-phenyl)-amide::CHEMBL71154

> <Curation/DataSource>
ChEMBL

> <Article DOI>
10.1016/s0960-894x(98)00365-5

> <PMID>
9873513

> <Patent Number>
?

> <Authors>
Albert, R; Knecht, H; Andersen, E; Hungerford, V; Schreier, MH; Papageorgiou, C

> <Link to Ligand in BindingDB>
http://www.bindingdb.org/bind/chemsearch/marvin/MolStructure.jsp?monomerid=50071401

> <Link to Ligand-Target Pair in BindingDB>
http://www.bindingdb.org/jsp/dbsearch/PrimarySearch_ki.jsp?energyterm=kJ/mole&tag=r21&monomerid=50071401&enzyme=Dihydroorotate+dehydrogenase&column=ki&startPg=0&Increment=50&submit=Search

> <PubChem CID>
44310325

> <PubChem SID>
103965155

$$$$

  Mrv2115 07222212352D          

 27 29  0  0  0  0            999 V2000
    1.4289   -4.9500    0.0000 O   0  0  0  0  0  0  0  0  0  0  0  0
    2.1434   -5.3625    0.0000 C   0  0  0  0  0  0  0  0  0  0  0  0
    2.8579   -4.9500    0.0000 O   0  0  0  0  0  0  0  0  0  0  0  0
    2.1434   -6.1875    0.0000 C   0  0  0  0  0  0  0  0  0  0  0  0
    2.8109   -6.6724    0.0000 C   0  0  0  0  0  0  0  0  0  0  0  0
    3.5955   -6.4175    0.0000 C   0  0  0  0  0  0  0  0  0  0  0  0
    4.2086   -6.9695    0.0000 O   0  0  0  0  0  0  0  0  0  0  0  0
    3.7670   -5.6105    0.0000 N   0  0  0  0  0  0  0  0  0  0  0  0
    4.5516   -5.3556    0.0000 C   0  0  0  0  0  0  0  0  0  0  0  0
    4.7231   -4.5486    0.0000 C   0  0  0  0  0  0  0  0  0  0  0  0
    5.5078   -4.2937    0.0000 C   0  0  0  0  0  0  0  0  0  0  0  0
    5.6793   -3.4867    0.0000 Br  0  0  0  0  0  0  0  0  0  0  0  0
    6.1209   -4.8457    0.0000 C   0  0  0  0  0  0  0  0  0  0  0  0
    6.9055   -4.5908    0.0000 O   0  0  0  0  0  0  0  0  0  0  0  0
    7.0770   -3.7838    0.0000 C   0  0  0  0  0  0  0  0  0  0  0  0
    7.8616   -3.5288    0.0000 C   0  0  0  0  0  0  0  0  0  0  0  0
    8.0332   -2.7219    0.0000 C   0  0  0  0  0  0  0  0  0  0  0  0
    8.8178   -2.4669    0.0000 C   0  0  0  0  0  0  0  0  0  0  0  0
    9.4309   -3.0190    0.0000 C   0  0  0  0  0  0  0  0  0  0  0  0
    9.2594   -3.8259    0.0000 C   0  0  0  0  0  0  0  0  0  0  0  0
    8.4747   -4.0809    0.0000 C   0  0  0  0  0  0  0  0  0  0  0  0
    5.9493   -5.6527    0.0000 C   0  0  0  0  0  0  0  0  0  0  0  0
    6.5624   -6.2047    0.0000 Br  0  0  0  0  0  0  0  0  0  0  0  0
    5.1647   -5.9076    0.0000 C   0  0  0  0  0  0  0  0  0  0  0  0
    2.5559   -7.4570    0.0000 C   0  0  0  0  0  0  0  0  0  0  0  0
    1.7309   -7.4570    0.0000 S   0  0  0  0  0  0  0  0  0  0  0  0
    1.4760   -6.6724    0.0000 C   0  0  0  0  0  0  0  0  0  0  0  0
  1  2  2  0  0  0  0
  2  3  1  0  0  0  0
  2  4  1  0  0  0  0
  4  5  2  0  0  0  0
  5  6  1  0  0  0  0
  6  7  2  0  0  0  0
  6  8  1  0  0  0  0
  8  9  1  0  0  0  0
  9 10  4  0  0  0  0
 10 11  4  0  0  0  0
 11 12  1  0  0  0  0
 11 13  4  0  0  0  0
 13 14  1  0  0  0  0
 14 15  1  0  0  0  0
 15 16  1  0  0  0  0
 16 17  4  0  0  0  0
 17 18  4  0  0  0  0
 18 19  4  0  0  0  0
 19 20  4  0  0  0  0
 20 21  4  0  0  0  0
 16 21  4  0  0  0  0
 13 22  4  0  0  0  0
 22 23  1  0  0  0  0
 22 24  4  0  0  0  0
  9 24  4  0  0  0  0
  5 25  1  0  0  0  0
 25 26  1  0  0  0  0
 26 27  1  0  0  0  0
  4 27  1  0  0  0  0
M  END
> <IC50(uM)>
0.173

> <Outcome>
1.0

> <BindingDB ID>
50319877

> <BindingDB MonomerID>
50173146

> <BindingDB Ligand Name>
4-(4-Benzyloxy-3,5-dibromo-phenylcarbamoyl)-2,5-dihydro-thiophene-3-carboxylic acid::CHEMBL195246

> <Curation/DataSource>
ChEMBL

> <Article DOI>
10.1016/j.bmcl.2005.07.053

> <PMID>
16143532

> <Patent Number>
?

> <Authors>
Leban, J; Kralik, M; Mies, J; Gassen, M; Tentschert, K; Baumgartner, R

> <Link to Ligand in BindingDB>
http://www.bindingdb.org/bind/chemsearch/marvin/MolStructure.jsp?monomerid=50173146

> <Link to Ligand-Target Pair in BindingDB>
http://www.bindingdb.org/jsp/dbsearch/PrimarySearch_ki.jsp?energyterm=kJ/mole&tag=r21&monomerid=50173146&enzyme=Dihydroorotate+dehydrogenase&column=ki&startPg=0&Increment=50&submit=Search

> <PubChem CID>
21084860

> <PubChem SID>
104059117

$$$$

  Mrv2115 07222212352D          

 29 32  0  0  0  0            999 V2000
   -0.7145    1.2375    0.0000 C   0  0  0  0  0  0  0  0  0  0  0  0
    0.0000    0.8250    0.0000 C   0  0  0  0  0  0  0  0  0  0  0  0
    0.0000   -0.0000    0.0000 O   0  0  0  0  0  0  0  0  0  0  0  0
    0.7145   -0.4125    0.0000 C   0  0  0  0  0  0  0  0  0  0  0  0
    1.4289   -0.0000    0.0000 O   0  0  0  0  0  0  0  0  0  0  0  0
    0.7145   -1.2375    0.0000 C   0  0  0  0  0  0  0  0  0  0  0  0
    1.3819   -1.7224    0.0000 S   0  0  0  0  0  0  0  0  0  0  0  0
    1.1270   -2.5070    0.0000 C   0  0  0  0  0  0  0  0  0  0  0  0
    1.6119   -3.1745    0.0000 N   0  0  0  0  0  0  0  0  0  0  0  0
    1.2763   -3.9282    0.0000 C   0  0  0  0  0  0  0  0  0  0  0  0
    1.7613   -4.5956    0.0000 C   0  0  0  0  0  0  0  0  0  0  0  0
    1.4257   -5.3493    0.0000 C   0  0  0  0  0  0  0  0  0  0  0  0
    0.6052   -5.4355    0.0000 C   0  0  0  0  0  0  0  0  0  0  0  0
    0.2697   -6.1892    0.0000 C   0  0  0  0  0  0  0  0  0  0  0  0
    0.7546   -6.8566    0.0000 C   0  0  0  0  0  0  0  0  0  0  0  0
    0.4190   -7.6103    0.0000 C   0  0  0  0  0  0  0  0  0  0  0  0
   -0.4015   -7.6965    0.0000 C   0  0  0  0  0  0  0  0  0  0  0  0
   -0.8864   -7.0291    0.0000 C   0  0  0  0  0  0  0  0  0  0  0  0
   -0.5508   -6.2754    0.0000 C   0  0  0  0  0  0  0  0  0  0  0  0
    0.1203   -4.7681    0.0000 C   0  0  0  0  0  0  0  0  0  0  0  0
    0.4559   -4.0144    0.0000 C   0  0  0  0  0  0  0  0  0  0  0  0
    0.3020   -2.5070    0.0000 N   0  0  0  0  0  0  0  0  0  0  0  0
    0.0470   -1.7224    0.0000 C   0  0  0  0  0  0  0  0  0  0  0  0
   -0.7376   -1.4675    0.0000 C   0  0  0  0  0  0  0  0  0  0  0  0
   -1.3507   -2.0195    0.0000 C   0  0  0  0  0  0  0  0  0  0  0  0
   -2.1353   -1.7646    0.0000 C   0  0  0  0  0  0  0  0  0  0  0  0
   -2.3068   -0.9576    0.0000 C   0  0  0  0  0  0  0  0  0  0  0  0
   -1.6937   -0.4056    0.0000 C   0  0  0  0  0  0  0  0  0  0  0  0
   -0.9091   -0.6605    0.0000 C   0  0  0  0  0  0  0  0  0  0  0  0
  1  2  1  0  0  0  0
  2  3  1  0  0  0  0
  3  4  1  0  0  0  0
  4  5  2  0  0  0  0
  4  6  1  0  0  0  0
  6  7  4  0  0  0  0
  7  8  4  0  0  0  0
  8  9  1  0  0  0  0
  9 10  1  0  0  0  0
 10 11  4  0  0  0  0
 11 12  4  0  0  0  0
 12 13  4  0  0  0  0
 13 14  1  0  0  0  0
 14 15  4  0  0  0  0
 15 16  4  0  0  0  0
 16 17  4  0  0  0  0
 17 18  4  0  0  0  0
 18 19  4  0  0  0  0
 14 19  4  0  0  0  0
 13 20  4  0  0  0  0
 20 21  4  0  0  0  0
 10 21  4  0  0  0  0
  8 22  4  0  0  0  0
 22 23  4  0  0  0  0
  6 23  4  0  0  0  0
 23 24  1  0  0  0  0
 24 25  4  0  0  0  0
 25 26  4  0  0  0  0
 26 27  4  0  0  0  0
 27 28  4  0  0  0  0
 28 29  4  0  0  0  0
 24 29  4  0  0  0  0
M  END
> <IC50(uM)>
10.0

> <Outcome>
0.0

> <BindingDB ID>
50312492

> <BindingDB MonomerID>
50071799

> <BindingDB Ligand Name>
CHEMBL3410612

> <Curation/DataSource>
ChEMBL

> <Article DOI>
10.1021/jm501127s

> <PMID>
25580811

> <Patent Number>
?

> <Authors>
Zhu, J; Han, L; Diao, Y; Ren, X; Xu, M; Xu, L; Li, S; Li, Q; Dong, D; Huang, J; Liu, X; Zhao, Z; Wang, R; Zhu, L; Xu, Y; Qian, X; Li, H

> <Link to Ligand in BindingDB>
http://www.bindingdb.org/bind/chemsearch/marvin/MolStructure.jsp?monomerid=50071799

> <Link to Ligand-Target Pair in BindingDB>
http://www.bindingdb.org/jsp/dbsearch/PrimarySearch_ki.jsp?energyterm=kJ/mole&tag=r21&monomerid=50071799&enzyme=Dihydroorotate+dehydrogenase&column=ki&startPg=0&Increment=50&submit=Search

> <PubChem CID>
118732520

> <PubChem SID>
103965509

$$$$

  Mrv2115 07222212352D          

 21 22  0  0  0  0            999 V2000
   -0.4605   -4.3815    0.0000 C   0  0  0  0  0  0  0  0  0  0  0  0
    0.2540   -3.9690    0.0000 C   0  0  0  0  0  0  0  0  0  0  0  0
    0.9684   -4.3815    0.0000 C   0  0  0  0  0  0  0  0  0  0  0  0
    1.6829   -3.9690    0.0000 N   0  0  0  0  0  0  0  0  0  0  0  0
    2.3974   -4.3815    0.0000 C   0  0  0  0  0  0  0  0  0  0  0  0
    2.3974   -5.2065    0.0000 O   0  0  0  0  0  0  0  0  0  0  0  0
    3.1118   -3.9690    0.0000 C   0  0  0  0  0  0  0  0  0  0  0  0
    3.1981   -3.1485    0.0000 C   0  0  0  0  0  0  0  0  0  0  0  0
    2.5850   -2.5965    0.0000 O   0  0  0  0  0  0  0  0  0  0  0  0
    4.0050   -2.9770    0.0000 C   0  0  0  0  0  0  0  0  0  0  0  0
    4.4175   -3.6915    0.0000 S   0  0  0  0  0  0  0  0  0  0  0  0
    3.8655   -4.3046    0.0000 C   0  0  0  0  0  0  0  0  0  0  0  0
    4.0370   -5.1115    0.0000 N   0  0  0  0  0  0  0  0  0  0  0  0
    4.8217   -5.3665    0.0000 C   0  0  0  0  0  0  0  0  0  0  0  0
    5.4348   -4.8145    0.0000 C   0  0  0  0  0  0  0  0  0  0  0  0
    6.2194   -5.0694    0.0000 C   0  0  0  0  0  0  0  0  0  0  0  0
    6.3909   -5.8764    0.0000 C   0  0  0  0  0  0  0  0  0  0  0  0
    7.1755   -6.1313    0.0000 C   0  0  0  0  0  0  0  0  0  0  0  0
    5.7778   -6.4284    0.0000 C   0  0  0  0  0  0  0  0  0  0  0  0
    5.9493   -7.2354    0.0000 C   0  0  0  0  0  0  0  0  0  0  0  0
    4.9932   -6.1735    0.0000 C   0  0  0  0  0  0  0  0  0  0  0  0
  1  2  1  0  0  0  0
  2  3  1  0  0  0  0
  3  4  1  0  0  0  0
  4  5  1  0  0  0  0
  5  6  2  0  0  0  0
  5  7  1  0  0  0  0
  7  8  4  0  0  0  0
  8  9  1  0  0  0  0
  8 10  4  0  0  0  0
 10 11  4  0  0  0  0
 11 12  4  0  0  0  0
  7 12  4  0  0  0  0
 12 13  1  0  0  0  0
 13 14  1  0  0  0  0
 14 15  4  0  0  0  0
 15 16  4  0  0  0  0
 16 17  4  0  0  0  0
 17 18  1  0  0  0  0
 17 19  4  0  0  0  0
 19 20  1  0  0  0  0
 19 21  4  0  0  0  0
 14 21  4  0  0  0  0
M  END
> <IC50(uM)>
6.299

> <Outcome>
0.0

> <BindingDB ID>
51079157

> <BindingDB MonomerID>
50441265

> <BindingDB Ligand Name>
CHEMBL2431484

> <Curation/DataSource>
ChEMBL

> <Article DOI>
10.1021/jm400938g

> <PMID>
24073986

> <Patent Number>
?

> <Authors>
Xu, M; Zhu, J; Diao, Y; Zhou, H; Ren, X; Sun, D; Huang, J; Han, D; Zhao, Z; Zhu, L; Xu, Y; Li, H

> <Link to Ligand in BindingDB>
http://www.bindingdb.org/bind/chemsearch/marvin/MolStructure.jsp?monomerid=50441265

> <Link to Ligand-Target Pair in BindingDB>
http://www.bindingdb.org/jsp/dbsearch/PrimarySearch_ki.jsp?energyterm=kJ/mole&tag=r21&monomerid=50441265&enzyme=Dihydroorotate+dehydrogenase&column=ki&startPg=0&Increment=50&submit=Search

> <PubChem CID>
91898826

> <PubChem SID>
175453582

$$$$

  Mrv2115 07222212352D          

 23 24  0  0  0  0            999 V2000
   -0.7145   -1.2375    0.0000 O   0  0  0  0  0  0  0  0  0  0  0  0
    0.0000   -1.6500    0.0000 C   0  0  0  0  0  0  0  0  0  0  0  0
    0.7145   -1.2375    0.0000 O   0  0  0  0  0  0  0  0  0  0  0  0
    0.0000   -2.4750    0.0000 C   0  0  0  0  0  0  0  0  0  0  0  0
    0.7145   -2.8875    0.0000 N   0  0  0  0  0  0  0  0  0  0  0  0
    0.7145   -3.7125    0.0000 C   0  0  0  0  0  0  0  0  0  0  0  0
    1.4289   -4.1250    0.0000 O   0  0  0  0  0  0  0  0  0  0  0  0
    0.0000   -4.1250    0.0000 N   0  0  0  0  0  0  0  0  0  0  0  0
   -0.7145   -3.7125    0.0000 C   0  0  0  0  0  0  0  0  0  0  0  0
   -1.4289   -4.1250    0.0000 O   0  0  0  0  0  0  0  0  0  0  0  0
   -0.7145   -2.8875    0.0000 C   0  0  0  0  0  0  0  0  0  0  0  0
   -1.4289   -2.4750    0.0000 C   0  0  0  0  0  0  0  0  0  0  0  0
   -1.4289   -1.6500    0.0000 C   0  0  0  0  0  0  0  0  0  0  0  0
   -2.1434   -1.2375    0.0000 C   0  0  0  0  0  0  0  0  0  0  0  0
   -2.8579   -1.6500    0.0000 C   0  0  0  0  0  0  0  0  0  0  0  0
   -3.5724   -1.2375    0.0000 C   0  0  0  0  0  0  0  0  0  0  0  0
   -3.5724   -0.4125    0.0000 C   0  0  0  0  0  0  0  0  0  0  0  0
   -2.8579    0.0000    0.0000 C   0  0  0  0  0  0  0  0  0  0  0  0
   -2.8579    0.8250    0.0000 C   0  0  0  0  0  0  0  0  0  0  0  0
   -2.8579    1.6500    0.0000 F   0  0  0  0  0  0  0  0  0  0  0  0
   -2.0329    0.8250    0.0000 F   0  0  0  0  0  0  0  0  0  0  0  0
   -3.6829    0.8250    0.0000 F   0  0  0  0  0  0  0  0  0  0  0  0
   -2.1434   -0.4125    0.0000 C   0  0  0  0  0  0  0  0  0  0  0  0
  1  2  2  0  0  0  0
  2  3  1  0  0  0  0
  2  4  1  0  0  0  0
  4  5  4  0  0  0  0
  5  6  4  0  0  0  0
  6  7  2  0  0  0  0
  6  8  4  0  0  0  0
  8  9  4  0  0  0  0
  9 10  2  0  0  0  0
  9 11  4  0  0  0  0
  4 11  4  0  0  0  0
 11 12  1  0  0  0  0
 12 13  1  0  0  0  0
 13 14  1  0  0  0  0
 14 15  4  0  0  0  0
 15 16  4  0  0  0  0
 16 17  4  0  0  0  0
 17 18  4  0  0  0  0
 18 19  1  0  0  0  0
 19 20  1  0  0  0  0
 19 21  1  0  0  0  0
 19 22  1  0  0  0  0
 18 23  4  0  0  0  0
 14 23  4  0  0  0  0
M  STY  2   1 DAT   2 DAT
M  SAL   1  1   5
M  SDT   1 MRV_IMPLICIT_H                                        
M  SDD   1     0.5304   -0.4125    DR    ALL  0       0  
M  SED   1 IMPL_H1
M  SAL   2  1   8
M  SDT   2 MRV_IMPLICIT_H                                        
M  SDD   2     0.6482   -0.4125    DR    ALL  0       0  
M  SED   2 IMPL_H1
M  END
> <IC50(uM)>
0.284

> <Outcome>
1.0

> <BindingDB ID>
50555334

> <BindingDB MonomerID>
50211745

> <BindingDB Ligand Name>
CHEMBL3899009

> <Curation/DataSource>
ChEMBL

> <Article DOI>
10.1016/j.bmc.2017.01.009

> <PMID>
28118956

> <Patent Number>
?

> <Authors>
Inaoka, DK; Iida, M; Hashimoto, S; Tabuchi, T; Kuranaga, T; Balogun, EO; Honma, T; Tanaka, A; Harada, S; Nara, T; Kita, K; Inoue, M

> <Link to Ligand in BindingDB>
http://www.bindingdb.org/bind/chemsearch/marvin/MolStructure.jsp?monomerid=50211745

> <Link to Ligand-Target Pair in BindingDB>
http://www.bindingdb.org/jsp/dbsearch/PrimarySearch_ki.jsp?energyterm=kJ/mole&tag=r21&monomerid=50211745&enzyme=Dihydroorotate+dehydrogenase&column=ki&startPg=0&Increment=50&submit=Search

> <PubChem CID>
134134172

> <PubChem SID>
104087825

$$$$

  Mrv2115 07222212352D          

 27 29  0  0  0  0            999 V2000
    4.0668    2.3479    0.0000 C   0  0  0  0  0  0  0  0  0  0  0  0
    3.3523    1.9354    0.0000 C   0  0  0  0  0  0  0  0  0  0  0  0
    3.3523    1.1104    0.0000 C   0  0  0  0  0  0  0  0  0  0  0  0
    2.6378    0.6979    0.0000 C   0  0  0  0  0  0  0  0  0  0  0  0
    2.6378   -0.1271    0.0000 N   0  0  0  0  0  0  0  0  0  0  0  0
    3.3523   -0.5396    0.0000 C   0  0  0  0  0  0  0  0  0  0  0  0
    4.0668   -0.1271    0.0000 C   0  0  0  0  0  0  0  0  0  0  0  0
    4.7812   -0.5396    0.0000 C   0  0  0  0  0  0  0  0  0  0  0  0
    5.4957   -0.1271    0.0000 F   0  0  0  0  0  0  0  0  0  0  0  0
    4.7812   -1.3646    0.0000 C   0  0  0  0  0  0  0  0  0  0  0  0
    5.4957   -1.7771    0.0000 C   0  0  0  0  0  0  0  0  0  0  0  0
    6.2102   -2.1896    0.0000 F   0  0  0  0  0  0  0  0  0  0  0  0
    5.9082   -1.0626    0.0000 F   0  0  0  0  0  0  0  0  0  0  0  0
    5.0832   -2.4915    0.0000 F   0  0  0  0  0  0  0  0  0  0  0  0
    4.0668   -1.7771    0.0000 C   0  0  0  0  0  0  0  0  0  0  0  0
    4.0668   -2.6021    0.0000 F   0  0  0  0  0  0  0  0  0  0  0  0
    3.3523   -1.3646    0.0000 C   0  0  0  0  0  0  0  0  0  0  0  0
    1.9233    1.1104    0.0000 N   0  0  0  0  0  0  0  0  0  0  0  0
    1.1387    0.8555    0.0000 N   0  0  0  0  0  0  0  0  0  0  0  0
    0.6538    1.5229    0.0000 C   0  0  0  0  0  0  0  0  0  0  0  0
   -0.1712    1.5229    0.0000 C   0  0  0  0  0  0  0  0  0  0  0  0
   -0.9962    1.5229    0.0000 C   0  0  0  0  0  0  0  0  0  0  0  0
   -0.1712    2.3479    0.0000 F   0  0  0  0  0  0  0  0  0  0  0  0
   -0.1712    0.6979    0.0000 F   0  0  0  0  0  0  0  0  0  0  0  0
    1.1387    2.1904    0.0000 N   0  0  0  0  0  0  0  0  0  0  0  0
    1.9233    1.9354    0.0000 C   0  0  0  0  0  0  0  0  0  0  0  0
    2.6378    2.3479    0.0000 N   0  0  0  0  0  0  0  0  0  0  0  0
  1  2  1  0  0  0  0
  2  3  4  0  0  0  0
  3  4  4  0  0  0  0
  4  5  1  0  0  0  0
  5  6  1  0  0  0  0
  6  7  4  0  0  0  0
  7  8  4  0  0  0  0
  8  9  1  0  0  0  0
  8 10  4  0  0  0  0
 10 11  1  0  0  0  0
 11 12  1  0  0  0  0
 11 13  1  0  0  0  0
 11 14  1  0  0  0  0
 10 15  4  0  0  0  0
 15 16  1  0  0  0  0
 15 17  4  0  0  0  0
  6 17  4  0  0  0  0
  4 18  4  0  0  0  0
 18 19  4  0  0  0  0
 19 20  4  0  0  0  0
 20 21  1  0  0  0  0
 21 22  1  0  0  0  0
 21 23  1  0  0  0  0
 21 24  1  0  0  0  0
 20 25  4  0  0  0  0
 25 26  4  0  0  0  0
 18 26  4  0  0  0  0
 26 27  4  0  0  0  0
  2 27  4  0  0  0  0
M  END
> <IC50(uM)>
2.4000000000000004

> <Outcome>
0.0

> <BindingDB ID>
50101964; 50101975

> <BindingDB MonomerID>
50018008

> <BindingDB Ligand Name>
CHEMBL3289671::US9238653, Table 5, Compound 43

> <Curation/DataSource>
ChEMBL

> <Article DOI>
10.1021/jm500481t

> <PMID>
24801997

> <Patent Number>
?

> <Authors>
Deng, X; Kokkonda, S; El Mazouni, F; White, J; Burrows, JN; Kaminsky, W; Charman, SA; Matthews, D; Rathod, PK; Phillips, MA

> <Link to Ligand in BindingDB>
http://www.bindingdb.org/bind/chemsearch/marvin/MolStructure.jsp?monomerid=50018008

> <Link to Ligand-Target Pair in BindingDB>
http://www.bindingdb.org/jsp/dbsearch/PrimarySearch_ki.jsp?energyterm=kJ/mole&tag=r21&monomerid=50018008&enzyme=Dihydroorotate+dehydrogenase&column=ki&startPg=0&Increment=50&submit=Search

> <PubChem CID>
51347545

> <PubChem SID>
103929184

$$$$

  Mrv2115 07222212352D          

 37 41  0  0  0  0            999 V2000
   -6.8159   -2.8414    0.0000 C   0  0  0  0  0  0  0  0  0  0  0  0
   -6.4034   -2.1269    0.0000 C   0  0  0  0  0  0  0  0  0  0  0  0
   -6.8159   -1.4124    0.0000 N   0  0  0  0  0  0  0  0  0  0  0  0
   -6.4034   -0.6979    0.0000 C   0  0  0  0  0  0  0  0  0  0  0  0
   -5.5784   -0.6979    0.0000 N   0  0  0  0  0  0  0  0  0  0  0  0
   -5.1659   -1.4124    0.0000 C   0  0  0  0  0  0  0  0  0  0  0  0
   -4.3409   -1.4124    0.0000 N   0  0  0  0  0  0  0  0  0  0  0  0
   -3.9284   -0.6979    0.0000 C   0  0  0  0  0  0  0  0  0  0  0  0
   -4.3409    0.0165    0.0000 O   0  0  0  0  0  0  0  0  0  0  0  0
   -3.1034   -0.6979    0.0000 C   0  0  0  0  0  0  0  0  0  0  0  0
   -2.6909    0.0165    0.0000 C   0  0  0  0  0  0  0  0  0  0  0  0
   -1.8659    0.0165    0.0000 C   0  0  0  0  0  0  0  0  0  0  0  0
   -1.4534    0.7310    0.0000 F   0  0  0  0  0  0  0  0  0  0  0  0
   -1.4534   -0.6979    0.0000 C   0  0  0  0  0  0  0  0  0  0  0  0
   -0.6284   -0.6979    0.0000 N   0  0  0  0  0  0  0  0  0  0  0  0
   -0.1435   -1.3654    0.0000 N   0  0  0  0  0  0  0  0  0  0  0  0
    0.6411   -1.1104    0.0000 C   0  0  0  0  0  0  0  0  0  0  0  0
    0.6411   -0.2854    0.0000 N   0  0  0  0  0  0  0  0  0  0  0  0
   -0.1435   -0.0305    0.0000 C   0  0  0  0  0  0  0  0  0  0  0  0
   -0.3984    0.7541    0.0000 O   0  0  0  0  0  0  0  0  0  0  0  0
    1.3556    0.1271    0.0000 C   0  0  0  0  0  0  0  0  0  0  0  0
    2.0701   -0.2854    0.0000 C   0  0  0  0  0  0  0  0  0  0  0  0
    2.0701   -1.1104    0.0000 C   0  0  0  0  0  0  0  0  0  0  0  0
    1.3556   -1.5229    0.0000 C   0  0  0  0  0  0  0  0  0  0  0  0
   -1.8659   -1.4124    0.0000 C   0  0  0  0  0  0  0  0  0  0  0  0
   -2.6909   -1.4124    0.0000 C   0  0  0  0  0  0  0  0  0  0  0  0
   -3.1034   -2.1269    0.0000 O   0  0  0  0  0  0  0  0  0  0  0  0
   -2.6909   -2.8414    0.0000 C   0  0  0  0  0  0  0  0  0  0  0  0
   -1.8659   -2.8414    0.0000 C   0  0  0  0  0  0  0  0  0  0  0  0
   -3.1034   -3.5558    0.0000 C   0  0  0  0  0  0  0  0  0  0  0  0
   -2.6909   -4.2703    0.0000 C   0  0  0  0  0  0  0  0  0  0  0  0
   -3.1034   -4.9848    0.0000 C   0  0  0  0  0  0  0  0  0  0  0  0
   -3.9284   -4.9848    0.0000 C   0  0  0  0  0  0  0  0  0  0  0  0
   -4.3409   -4.2703    0.0000 C   0  0  0  0  0  0  0  0  0  0  0  0
   -3.9284   -3.5558    0.0000 C   0  0  0  0  0  0  0  0  0  0  0  0
   -5.5784   -2.1269    0.0000 C   0  0  0  0  0  0  0  0  0  0  0  0
   -5.1659   -2.8414    0.0000 C   0  0  0  0  0  0  0  0  0  0  0  0
  1  2  1  0  0  0  0
  2  3  4  0  0  0  0
  3  4  4  0  0  0  0
  4  5  4  0  0  0  0
  5  6  4  0  0  0  0
  6  7  1  0  0  0  0
  7  8  1  0  0  0  0
  8  9  2  0  0  0  0
  8 10  1  0  0  0  0
 10 11  4  0  0  0  0
 11 12  4  0  0  0  0
 12 13  1  0  0  0  0
 12 14  4  0  0  0  0
 14 15  1  0  0  0  0
 15 16  4  0  0  0  0
 16 17  4  0  0  0  0
 17 18  4  0  0  0  0
 18 19  4  0  0  0  0
 15 19  4  0  0  0  0
 19 20  2  0  0  0  0
 18 21  1  0  0  0  0
 21 22  1  0  0  0  0
 22 23  1  0  0  0  0
 23 24  1  0  0  0  0
 17 24  1  0  0  0  0
 14 25  4  0  0  0  0
 25 26  4  0  0  0  0
 10 26  4  0  0  0  0
 26 27  1  0  0  0  0
 27 28  1  0  0  0  0
 28 29  1  0  0  0  0
 28 30  1  0  0  0  0
 30 31  1  0  0  0  0
 31 32  1  0  0  0  0
 32 33  1  0  0  0  0
 33 34  1  0  0  0  0
 34 35  1  0  0  0  0
 30 35  1  0  0  0  0
  6 36  4  0  0  0  0
  2 36  4  0  0  0  0
 36 37  1  0  0  0  0
M  END
> <IC50(uM)>
0.35

> <Outcome>
1.0

> <BindingDB ID>
1020514

> <BindingDB MonomerID>
490462

> <BindingDB Ligand Name>
2-[(1S)-1-cyclohexylethoxy]-N-(5,6-dimethylpyrimidin-4-yl)-5-fluoro-4-(3-oxo-5,6,7,8-tetrahydro[1,2,4]triazolo[4,3-a]pyridin-2(3H)-yl)benzamide::US10968216, Example 130

> <Curation/DataSource>
US Patent

> <Article DOI>
?

> <PMID>
?

> <Patent Number>
US10968216

> <Authors>
Gradl, SN; Nguyen, D; Eis, K; Gunther, J; Stellfeld, T; Janzer, A; Christian, S; Mueller, T; Sheikh, SE; Zhou, HJ; Zhao, C; Sykes, DB; Ferrara, SJ; Liu, K; Herbert, SA; Merz, C; Niehues, M; Nising, CF; Schafer, M; Zimmermann, K; Knablein, J; Thede, K; Faupel, T

> <Link to Ligand in BindingDB>
http://www.bindingdb.org/bind/chemsearch/marvin/MolStructure.jsp?monomerid=490462

> <Link to Ligand-Target Pair in BindingDB>
http://www.bindingdb.org/jsp/dbsearch/PrimarySearch_ki.jsp?energyterm=kJ/mole&tag=r21&monomerid=490462&enzyme=Dihydroorotate+dehydrogenase&column=ki&startPg=0&Increment=50&submit=Search

> <PubChem CID>
142335900

> <PubChem SID>
447117189

$$$$

  Mrv2115 07222212352D          

 24 27  0  0  0  0            999 V2000
   -1.4289   -4.9500    0.0000 O   0  0  0  0  0  0  0  0  0  0  0  0
   -1.4289   -4.1250    0.0000 C   0  0  0  0  0  0  0  0  0  0  0  0
   -2.1434   -3.7125    0.0000 C   0  0  0  0  0  0  0  0  0  0  0  0
   -2.8579   -4.1250    0.0000 O   0  0  0  0  0  0  0  0  0  0  0  0
   -2.1434   -2.8875    0.0000 C   0  0  0  0  0  0  0  0  0  0  0  0
   -2.8579   -2.4750    0.0000 N   0  0  0  0  0  0  0  0  0  0  0  0
   -2.8579   -1.6500    0.0000 C   0  0  0  0  0  0  0  0  0  0  0  0
   -2.1434   -1.2375    0.0000 C   0  0  0  0  0  0  0  0  0  0  0  0
   -2.1434   -0.4125    0.0000 C   0  0  0  0  0  0  0  0  0  0  0  0
   -2.8579   -0.0000    0.0000 C   0  0  0  0  0  0  0  0  0  0  0  0
   -3.5724   -0.4125    0.0000 C   0  0  0  0  0  0  0  0  0  0  0  0
   -3.5724   -1.2375    0.0000 C   0  0  0  0  0  0  0  0  0  0  0  0
   -4.2868    0.0000    0.0000 O   0  0  0  0  0  0  0  0  0  0  0  0
   -4.2868    0.8250    0.0000 C   0  0  0  0  0  0  0  0  0  0  0  0
   -3.5724    1.2375    0.0000 C   0  0  0  0  0  0  0  0  0  0  0  0
   -2.8579    0.8250    0.0000 O   0  0  0  0  0  0  0  0  0  0  0  0
   -1.4289   -2.4750    0.0000 C   0  0  0  0  0  0  0  0  0  0  0  0
   -1.4289   -1.6500    0.0000 O   0  0  0  0  0  0  0  0  0  0  0  0
   -0.7145   -2.8875    0.0000 C   0  0  0  0  0  0  0  0  0  0  0  0
    0.0000   -2.4750    0.0000 C   0  0  0  0  0  0  0  0  0  0  0  0
    0.7145   -2.8875    0.0000 C   0  0  0  0  0  0  0  0  0  0  0  0
    0.7145   -3.7125    0.0000 C   0  0  0  0  0  0  0  0  0  0  0  0
    0.0000   -4.1250    0.0000 C   0  0  0  0  0  0  0  0  0  0  0  0
   -0.7145   -3.7125    0.0000 C   0  0  0  0  0  0  0  0  0  0  0  0
  1  2  2  0  0  0  0
  2  3  1  0  0  0  0
  3  4  1  0  0  0  0
  3  5  2  0  0  0  0
  5  6  1  0  0  0  0
  6  7  1  0  0  0  0
  7  8  4  0  0  0  0
  8  9  4  0  0  0  0
  9 10  4  0  0  0  0
 10 11  4  0  0  0  0
 11 12  4  0  0  0  0
  7 12  4  0  0  0  0
 11 13  1  0  0  0  0
 13 14  1  0  0  0  0
 14 15  1  0  0  0  0
 15 16  1  0  0  0  0
 10 16  1  0  0  0  0
  5 17  1  0  0  0  0
 17 18  2  0  0  0  0
 17 19  1  0  0  0  0
 19 20  4  0  0  0  0
 20 21  4  0  0  0  0
 21 22  4  0  0  0  0
 22 23  4  0  0  0  0
 23 24  4  0  0  0  0
 19 24  4  0  0  0  0
  2 24  1  0  0  0  0
M  END
> <IC50(uM)>
1.05

> <Outcome>
0.0

> <BindingDB ID>
51282850

> <BindingDB MonomerID>
50523221

> <BindingDB Ligand Name>
CHEMBL4546952

> <Curation/DataSource>
ChEMBL

> <Article DOI>
10.1016/j.ejmech.2019.02.018

> <PMID>
30776695

> <Patent Number>
?

> <Authors>
Calil, FA; David, JS; Chiappetta, ERC; Fumagalli, F; Mello, RB; Leite, FHA; Castilho, MS; Emery, FS; Nonato, MC

> <Link to Ligand in BindingDB>
http://www.bindingdb.org/bind/chemsearch/marvin/MolStructure.jsp?monomerid=50523221

> <Link to Ligand-Target Pair in BindingDB>
http://www.bindingdb.org/jsp/dbsearch/PrimarySearch_ki.jsp?energyterm=kJ/mole&tag=r21&monomerid=50523221&enzyme=Dihydroorotate+dehydrogenase&column=ki&startPg=0&Increment=50&submit=Search

> <PubChem CID>
155552167

> <PubChem SID>
440731803

$$$$

  Mrv2115 07222212352D          

 32 35  0  0  0  0            999 V2000
    0.0000   -1.6500    0.0000 C   0  0  0  0  0  0  0  0  0  0  0  0
    0.7145   -1.2375    0.0000 C   0  0  0  0  0  0  0  0  0  0  0  0
    0.7145   -0.4125    0.0000 C   0  0  0  0  0  0  0  0  0  0  0  0
    0.0000    0.0000    0.0000 C   0  0  0  0  0  0  0  0  0  0  0  0
   -0.7145   -0.4125    0.0000 C   0  0  0  0  0  0  0  0  0  0  0  0
   -1.4289    0.0000    0.0000 C   0  0  0  0  0  0  0  0  0  0  0  0
   -1.4289    0.8250    0.0000 C   0  0  0  0  0  0  0  0  0  0  0  0
   -2.1434    1.2375    0.0000 C   0  0  0  0  0  0  0  0  0  0  0  0
   -2.8579    0.8250    0.0000 C   0  0  0  0  0  0  0  0  0  0  0  0
   -3.5724    1.2375    0.0000 C   0  0  0  0  0  0  0  0  0  0  0  0
   -3.5724    2.0625    0.0000 C   0  0  0  0  0  0  0  0  0  0  0  0
   -2.8579    2.4750    0.0000 C   0  0  0  0  0  0  0  0  0  0  0  0
   -2.1434    2.0625    0.0000 C   0  0  0  0  0  0  0  0  0  0  0  0
   -1.4289    2.4750    0.0000 F   0  0  0  0  0  0  0  0  0  0  0  0
   -0.7145    1.2375    0.0000 C   0  0  0  0  0  0  0  0  0  0  0  0
    0.0000    0.8250    0.0000 C   0  0  0  0  0  0  0  0  0  0  0  0
    1.4289    0.0000    0.0000 N   0  0  0  0  0  0  0  0  0  0  0  0
    2.1434   -0.4125    0.0000 C   0  0  0  0  0  0  0  0  0  0  0  0
    2.8579    0.0000    0.0000 C   0  0  0  0  0  0  0  0  0  0  0  0
    3.5724   -0.4125    0.0000 C   0  0  0  0  0  0  0  0  0  0  0  0
    3.5724   -1.2375    0.0000 C   0  0  0  0  0  0  0  0  0  0  0  0
    4.2868   -1.6500    0.0000 F   0  0  0  0  0  0  0  0  0  0  0  0
    2.8579   -1.6500    0.0000 C   0  0  0  0  0  0  0  0  0  0  0  0
    2.1434   -1.2375    0.0000 C   0  0  0  0  0  0  0  0  0  0  0  0
    1.4289   -1.6500    0.0000 C   0  0  0  0  0  0  0  0  0  0  0  0
    1.4289   -2.4750    0.0000 C   0  0  0  0  0  0  0  0  0  0  0  0
    0.7145   -2.8875    0.0000 O   0  0  0  0  0  0  0  0  0  0  0  0
    2.1434   -2.8875    0.0000 N   0  0  0  0  0  0  0  0  0  0  0  0
    2.1434   -3.7125    0.0000 S   0  0  0  0  0  0  0  0  0  0  0  0
    1.3184   -3.7125    0.0000 C   0  0  0  0  0  0  0  0  0  0  0  0
    2.9684   -3.7125    0.0000 O   0  0  0  0  0  0  0  0  0  0  0  0
    2.1434   -4.5375    0.0000 O   0  0  0  0  0  0  0  0  0  0  0  0
  1  2  1  0  0  0  0
  2  3  4  0  0  0  0
  3  4  1  0  0  0  0
  4  5  4  0  0  0  0
  5  6  4  0  0  0  0
  6  7  4  0  0  0  0
  7  8  1  0  0  0  0
  8  9  4  0  0  0  0
  9 10  4  0  0  0  0
 10 11  4  0  0  0  0
 11 12  4  0  0  0  0
 12 13  4  0  0  0  0
  8 13  4  0  0  0  0
 13 14  1  0  0  0  0
  7 15  4  0  0  0  0
 15 16  4  0  0  0  0
  4 16  4  0  0  0  0
  3 17  4  0  0  0  0
 17 18  4  0  0  0  0
 18 19  4  0  0  0  0
 19 20  4  0  0  0  0
 20 21  4  0  0  0  0
 21 22  1  0  0  0  0
 21 23  4  0  0  0  0
 23 24  4  0  0  0  0
 18 24  4  0  0  0  0
 24 25  4  0  0  0  0
  2 25  4  0  0  0  0
 25 26  1  0  0  0  0
 26 27  2  0  0  0  0
 26 28  1  0  0  0  0
 28 29  1  0  0  0  0
 29 30  1  0  0  0  0
 29 31  2  0  0  0  0
 29 32  2  0  0  0  0
M  END
> <IC50(uM)>
0.032

> <Outcome>
1.0

> <BindingDB ID>
51370196

> <BindingDB MonomerID>
50554024

> <BindingDB Ligand Name>
CHEMBL4762268

> <Curation/DataSource>
ChEMBL

> <Article DOI>
?

> <PMID>
33007394

> <Patent Number>
?

> <Authors>
DeRatt, LG; Christine Pietsch, E; Tanner, A; Shaffer, P; Jacoby, E; Wang, W; Kazmi, F; Zhang, X; Attar, RM; Edwards, JP; Kuduk, SD

> <Link to Ligand in BindingDB>
http://www.bindingdb.org/bind/chemsearch/marvin/MolStructure.jsp?monomerid=50554024

> <Link to Ligand-Target Pair in BindingDB>
http://www.bindingdb.org/jsp/dbsearch/PrimarySearch_ki.jsp?energyterm=kJ/mole&tag=r21&monomerid=50554024&enzyme=Dihydroorotate+dehydrogenase&column=ki&startPg=0&Increment=50&submit=Search

> <PubChem CID>
162659635

> <PubChem SID>
461692792

$$$$

  Mrv2115 07222212352D          

 23 25  0  0  0  0            999 V2000
    0.7145   -3.7125    0.0000 O   0  0  0  0  0  0  0  0  0  0  0  0
    1.4289   -4.1250    0.0000 C   0  0  0  0  0  0  0  0  0  0  0  0
    2.1434   -3.7125    0.0000 O   0  0  0  0  0  0  0  0  0  0  0  0
    1.4289   -4.9500    0.0000 C   0  0  0  0  0  0  0  0  0  0  0  0
    2.0964   -5.4349    0.0000 C   0  0  0  0  0  0  0  0  0  0  0  0
    2.8810   -5.1800    0.0000 C   0  0  0  0  0  0  0  0  0  0  0  0
    3.4941   -5.7320    0.0000 O   0  0  0  0  0  0  0  0  0  0  0  0
    3.0525   -4.3730    0.0000 N   0  0  0  0  0  0  0  0  0  0  0  0
    3.8372   -4.1181    0.0000 C   0  0  0  0  0  0  0  0  0  0  0  0
    4.0087   -3.3111    0.0000 C   0  0  0  0  0  0  0  0  0  0  0  0
    4.7933   -3.0562    0.0000 C   0  0  0  0  0  0  0  0  0  0  0  0
    5.4064   -3.6082    0.0000 C   0  0  0  0  0  0  0  0  0  0  0  0
    6.1910   -3.3533    0.0000 C   0  0  0  0  0  0  0  0  0  0  0  0
    6.3625   -2.5463    0.0000 C   0  0  0  0  0  0  0  0  0  0  0  0
    7.1472   -2.2913    0.0000 C   0  0  0  0  0  0  0  0  0  0  0  0
    7.7603   -2.8434    0.0000 C   0  0  0  0  0  0  0  0  0  0  0  0
    7.5887   -3.6503    0.0000 C   0  0  0  0  0  0  0  0  0  0  0  0
    6.8041   -3.9053    0.0000 C   0  0  0  0  0  0  0  0  0  0  0  0
    5.2349   -4.4152    0.0000 C   0  0  0  0  0  0  0  0  0  0  0  0
    4.4502   -4.6701    0.0000 C   0  0  0  0  0  0  0  0  0  0  0  0
    1.8414   -6.2195    0.0000 C   0  0  0  0  0  0  0  0  0  0  0  0
    1.0164   -6.2195    0.0000 C   0  0  0  0  0  0  0  0  0  0  0  0
    0.7615   -5.4349    0.0000 C   0  0  0  0  0  0  0  0  0  0  0  0
  1  2  2  0  0  0  0
  2  3  1  0  0  0  0
  2  4  1  0  0  0  0
  4  5  2  0  0  0  0
  5  6  1  0  0  0  0
  6  7  2  0  0  0  0
  6  8  1  0  0  0  0
  8  9  1  0  0  0  0
  9 10  4  0  0  0  0
 10 11  4  0  0  0  0
 11 12  4  0  0  0  0
 12 13  1  0  0  0  0
 13 14  4  0  0  0  0
 14 15  4  0  0  0  0
 15 16  4  0  0  0  0
 16 17  4  0  0  0  0
 17 18  4  0  0  0  0
 13 18  4  0  0  0  0
 12 19  4  0  0  0  0
 19 20  4  0  0  0  0
  9 20  4  0  0  0  0
  5 21  1  0  0  0  0
 21 22  1  0  0  0  0
 22 23  1  0  0  0  0
  4 23  1  0  0  0  0
M  END
> <IC50(uM)>
0.41

> <Outcome>
1.0

> <BindingDB ID>
29213; 50251700; 50319887

> <BindingDB MonomerID>
16109

> <BindingDB Ligand Name>
2-[(4-phenylphenyl)carbamoyl]cyclopent-1-ene-1-carboxylic acid::Biphenyl-4-ylcarbamoyl Cyclopentene Analog 1::CHEMBL348270

> <Curation/DataSource>
Curated from the literature by BindingDB; ChEMBL

> <Article DOI>
10.1016/j.bmcl.2005.10.011; 10.1016/j.bmcl.2003.10.021; 10.1016/j.bmcl.2005.07.053

> <PMID>
16246558; 14684297; 16143532

> <Patent Number>
?

> <Authors>
Leban, J; Kralik, M; Mies, J; Baumgartner, R; Gassen, M; Tasler, S; Leban, J; Saeb, W; Garcia, G; Baumgartner, R; Kramer, B; Leban, J; Kralik, M; Mies, J; Gassen, M; Tentschert, K; Baumgartner, R

> <Link to Ligand in BindingDB>
http://www.bindingdb.org/bind/chemsearch/marvin/MolStructure.jsp?monomerid=16109

> <Link to Ligand-Target Pair in BindingDB>
http://www.bindingdb.org/jsp/dbsearch/PrimarySearch_ki.jsp?energyterm=kJ/mole&tag=r21&monomerid=16109&enzyme=Dihydroorotate+Dehydrogenase+%28DHODH%29&column=ki&startPg=0&Increment=50&submit=Search; http://www.bindingdb.org/jsp/dbsearch/PrimarySearch_ki.jsp?energyterm=kJ/mole&tag=r21&monomerid=16109&enzyme=Dihydroorotate+dehydrogenase&column=ki&startPg=0&Increment=50&submit=Search

> <PubChem CID>
9948506

> <PubChem SID>
46516369

$$$$

  Mrv2115 07222212352D          

 26 29  0  0  0  0            999 V2000
    4.6623   -3.3934    0.0000 C   0  0  0  0  0  0  0  0  0  0  0  0
    4.4073   -2.6088    0.0000 C   0  0  0  0  0  0  0  0  0  0  0  0
    3.6004   -2.4373    0.0000 C   0  0  0  0  0  0  0  0  0  0  0  0
    3.3454   -1.6527    0.0000 C   0  0  0  0  0  0  0  0  0  0  0  0
    3.8974   -1.0396    0.0000 C   0  0  0  0  0  0  0  0  0  0  0  0
    3.6425   -0.2549    0.0000 N   0  0  0  0  0  0  0  0  0  0  0  0
    4.1274    0.4125    0.0000 N   0  0  0  0  0  0  0  0  0  0  0  0
    3.6425    1.0799    0.0000 N   0  0  0  0  0  0  0  0  0  0  0  0
    2.8579    0.8250    0.0000 C   0  0  0  0  0  0  0  0  0  0  0  0
    2.8579    0.0000    0.0000 C   0  0  0  0  0  0  0  0  0  0  0  0
    2.1434   -0.4125    0.0000 C   0  0  0  0  0  0  0  0  0  0  0  0
    2.1434   -1.2375    0.0000 O   0  0  0  0  0  0  0  0  0  0  0  0
    1.4289   -0.0000    0.0000 C   0  0  0  0  0  0  0  0  0  0  0  0
    0.7145   -0.4125    0.0000 C   0  0  0  0  0  0  0  0  0  0  0  0
   -0.0000    0.0000    0.0000 C   0  0  0  0  0  0  0  0  0  0  0  0
    0.0000    0.8250    0.0000 C   0  0  0  0  0  0  0  0  0  0  0  0
    0.7145    1.2375    0.0000 C   0  0  0  0  0  0  0  0  0  0  0  0
    1.4289    0.8250    0.0000 C   0  0  0  0  0  0  0  0  0  0  0  0
    2.1434    1.2375    0.0000 C   0  0  0  0  0  0  0  0  0  0  0  0
    2.1434    2.0625    0.0000 O   0  0  0  0  0  0  0  0  0  0  0  0
    4.7044   -1.2111    0.0000 C   0  0  0  0  0  0  0  0  0  0  0  0
    4.9594   -1.9957    0.0000 C   0  0  0  0  0  0  0  0  0  0  0  0
    5.7663   -2.1672    0.0000 C   0  0  0  0  0  0  0  0  0  0  0  0
    6.5733   -2.3388    0.0000 F   0  0  0  0  0  0  0  0  0  0  0  0
    5.5948   -2.9742    0.0000 F   0  0  0  0  0  0  0  0  0  0  0  0
    5.9379   -1.3603    0.0000 F   0  0  0  0  0  0  0  0  0  0  0  0
  1  2  1  0  0  0  0
  2  3  4  0  0  0  0
  3  4  4  0  0  0  0
  4  5  4  0  0  0  0
  5  6  1  0  0  0  0
  6  7  4  0  0  0  0
  7  8  4  0  0  0  0
  8  9  4  0  0  0  0
  9 10  4  0  0  0  0
  6 10  4  0  0  0  0
 10 11  1  0  0  0  0
 11 12  2  0  0  0  0
 11 13  1  0  0  0  0
 13 14  4  0  0  0  0
 14 15  4  0  0  0  0
 15 16  4  0  0  0  0
 16 17  4  0  0  0  0
 17 18  4  0  0  0  0
 13 18  4  0  0  0  0
 18 19  1  0  0  0  0
  9 19  1  0  0  0  0
 19 20  2  0  0  0  0
  5 21  4  0  0  0  0
 21 22  4  0  0  0  0
  2 22  4  0  0  0  0
 22 23  1  0  0  0  0
 23 24  1  0  0  0  0
 23 25  1  0  0  0  0
 23 26  1  0  0  0  0
M  END
> <IC50(uM)>
1.0

> <Outcome>
1.0

> <BindingDB ID>
51338170

> <BindingDB MonomerID>
50541644

> <BindingDB Ligand Name>
CHEMBL4642526

> <Curation/DataSource>
ChEMBL

> <Article DOI>
10.1021/acs.jmedchem.0c00512

> <PMID>
32496056

> <Patent Number>
?

> <Authors>
Zuo, Z; Liu, X; Qian, X; Zeng, T; Sang, N; Liu, H; Zhou, Y; Tao, L; Zhou, X; Su, N; Yu, Y; Chen, Q; Luo, Y; Zhao, Y

> <Link to Ligand in BindingDB>
http://www.bindingdb.org/bind/chemsearch/marvin/MolStructure.jsp?monomerid=50541644

> <Link to Ligand-Target Pair in BindingDB>
http://www.bindingdb.org/jsp/dbsearch/PrimarySearch_ki.jsp?energyterm=kJ/mole&tag=r21&monomerid=50541644&enzyme=Dihydroorotate+dehydrogenase&column=ki&startPg=0&Increment=50&submit=Search

> <PubChem CID>
156016945

> <PubChem SID>
442143207

$$$$

  Mrv2115 07222212352D          

 36 39  0  0  0  0            999 V2000
   -3.1034    2.1599    0.0000 C   0  0  0  0  0  0  0  0  0  0  0  0
   -2.6909    1.4455    0.0000 C   0  0  0  0  0  0  0  0  0  0  0  0
   -3.1034    0.7310    0.0000 O   0  0  0  0  0  0  0  0  0  0  0  0
   -2.6909    0.0165    0.0000 C   0  0  0  0  0  0  0  0  0  0  0  0
   -1.8659    0.0165    0.0000 C   0  0  0  0  0  0  0  0  0  0  0  0
   -1.4534   -0.6979    0.0000 C   0  0  0  0  0  0  0  0  0  0  0  0
   -0.6284   -0.6979    0.0000 N   0  0  0  0  0  0  0  0  0  0  0  0
   -0.1435   -1.3654    0.0000 N   0  0  0  0  0  0  0  0  0  0  0  0
    0.6411   -1.1104    0.0000 C   0  0  0  0  0  0  0  0  0  0  0  0
    0.6411   -0.2854    0.0000 N   0  0  0  0  0  0  0  0  0  0  0  0
   -0.1435   -0.0305    0.0000 C   0  0  0  0  0  0  0  0  0  0  0  0
   -0.3984    0.7541    0.0000 O   0  0  0  0  0  0  0  0  0  0  0  0
    1.3556    0.1271    0.0000 C   0  0  0  0  0  0  0  0  0  0  0  0
    2.0701   -0.2854    0.0000 C   0  0  0  0  0  0  0  0  0  0  0  0
    2.0701   -1.1104    0.0000 C   0  0  0  0  0  0  0  0  0  0  0  0
    1.3556   -1.5229    0.0000 C   0  0  0  0  0  0  0  0  0  0  0  0
   -1.8659   -1.4124    0.0000 C   0  0  0  0  0  0  0  0  0  0  0  0
   -1.4534   -2.1269    0.0000 F   0  0  0  0  0  0  0  0  0  0  0  0
   -2.6909   -1.4124    0.0000 C   0  0  0  0  0  0  0  0  0  0  0  0
   -3.1034   -0.6979    0.0000 C   0  0  0  0  0  0  0  0  0  0  0  0
   -3.9284   -0.6979    0.0000 C   0  0  0  0  0  0  0  0  0  0  0  0
   -4.3409    0.0165    0.0000 O   0  0  0  0  0  0  0  0  0  0  0  0
   -4.3409   -1.4124    0.0000 N   0  0  0  0  0  0  0  0  0  0  0  0
   -5.1659   -1.4124    0.0000 C   0  0  0  0  0  0  0  0  0  0  0  0
   -5.5784   -2.1269    0.0000 C   0  0  0  0  0  0  0  0  0  0  0  0
   -5.1659   -2.8414    0.0000 F   0  0  0  0  0  0  0  0  0  0  0  0
   -6.4034   -2.1269    0.0000 C   0  0  0  0  0  0  0  0  0  0  0  0
   -6.8159   -1.4124    0.0000 C   0  0  0  0  0  0  0  0  0  0  0  0
   -7.6409   -1.4124    0.0000 F   0  0  0  0  0  0  0  0  0  0  0  0
   -6.4034   -0.6979    0.0000 C   0  0  0  0  0  0  0  0  0  0  0  0
   -5.5784   -0.6979    0.0000 C   0  0  0  0  0  0  0  0  0  0  0  0
   -5.1659    0.0165    0.0000 F   0  0  0  0  0  0  0  0  0  0  0  0
   -1.8659    1.4455    0.0000 C   0  0  0  0  0  0  0  0  0  0  0  0
   -1.8659    0.6205    0.0000 F   0  0  0  0  0  0  0  0  0  0  0  0
   -1.8659    2.2705    0.0000 F   0  0  0  0  0  0  0  0  0  0  0  0
   -1.0409    1.4455    0.0000 F   0  0  0  0  0  0  0  0  0  0  0  0
  1  2  1  0  0  0  0
  2  3  1  0  0  0  0
  3  4  1  0  0  0  0
  4  5  4  0  0  0  0
  5  6  4  0  0  0  0
  6  7  1  0  0  0  0
  7  8  4  0  0  0  0
  8  9  4  0  0  0  0
  9 10  4  0  0  0  0
 10 11  4  0  0  0  0
  7 11  4  0  0  0  0
 11 12  2  0  0  0  0
 10 13  1  0  0  0  0
 13 14  1  0  0  0  0
 14 15  1  0  0  0  0
 15 16  1  0  0  0  0
  9 16  1  0  0  0  0
  6 17  4  0  0  0  0
 17 18  1  0  0  0  0
 17 19  4  0  0  0  0
 19 20  4  0  0  0  0
  4 20  4  0  0  0  0
 20 21  1  0  0  0  0
 21 22  2  0  0  0  0
 21 23  1  0  0  0  0
 23 24  1  0  0  0  0
 24 25  4  0  0  0  0
 25 26  1  0  0  0  0
 25 27  4  0  0  0  0
 27 28  4  0  0  0  0
 28 29  1  0  0  0  0
 28 30  4  0  0  0  0
 30 31  4  0  0  0  0
 24 31  4  0  0  0  0
 31 32  1  0  0  0  0
  2 33  1  0  0  0  0
 33 34  1  0  0  0  0
 33 35  1  0  0  0  0
 33 36  1  0  0  0  0
M  END
> <IC50(uM)>
0.043

> <Outcome>
1.0

> <BindingDB ID>
1020459

> <BindingDB MonomerID>
490407

> <BindingDB Ligand Name>
5-fluoro-4-(3-oxo-5,6,7,8-tetrahydro[1,2,4]triazolo[4,3-a]pyridin-2(3H)-yl)-N-(2,4,6-trifluorophenyl)-2-{[(2S)-1,1,1-trifluoropropan-2-yl]oxy}benzamide::US10968216, Example 75

> <Curation/DataSource>
US Patent

> <Article DOI>
?

> <PMID>
?

> <Patent Number>
US10968216

> <Authors>
Gradl, SN; Nguyen, D; Eis, K; Gunther, J; Stellfeld, T; Janzer, A; Christian, S; Mueller, T; Sheikh, SE; Zhou, HJ; Zhao, C; Sykes, DB; Ferrara, SJ; Liu, K; Herbert, SA; Merz, C; Niehues, M; Nising, CF; Schafer, M; Zimmermann, K; Knablein, J; Thede, K; Faupel, T

> <Link to Ligand in BindingDB>
http://www.bindingdb.org/bind/chemsearch/marvin/MolStructure.jsp?monomerid=490407

> <Link to Ligand-Target Pair in BindingDB>
http://www.bindingdb.org/jsp/dbsearch/PrimarySearch_ki.jsp?energyterm=kJ/mole&tag=r21&monomerid=490407&enzyme=Dihydroorotate+dehydrogenase&column=ki&startPg=0&Increment=50&submit=Search

> <PubChem CID>
134474304

> <PubChem SID>
447117134

$$$$

  Mrv2115 07222212352D          

 26 29  0  0  0  0            999 V2000
   -0.1712   -0.6979    0.0000 C   0  0  0  0  0  0  0  0  0  0  0  0
    0.6538   -0.6979    0.0000 C   0  0  0  0  0  0  0  0  0  0  0  0
    1.1387   -0.0305    0.0000 N   0  0  0  0  0  0  0  0  0  0  0  0
    1.9233   -0.2854    0.0000 C   0  0  0  0  0  0  0  0  0  0  0  0
    2.6378    0.1271    0.0000 C   0  0  0  0  0  0  0  0  0  0  0  0
    2.6378    0.9521    0.0000 C   0  0  0  0  0  0  0  0  0  0  0  0
    3.3523    1.3646    0.0000 O   0  0  0  0  0  0  0  0  0  0  0  0
    1.9233    1.3646    0.0000 O   0  0  0  0  0  0  0  0  0  0  0  0
    3.3523   -0.2854    0.0000 C   0  0  0  0  0  0  0  0  0  0  0  0
    3.3523   -1.1104    0.0000 C   0  0  0  0  0  0  0  0  0  0  0  0
    4.0668   -1.5229    0.0000 C   0  0  0  0  0  0  0  0  0  0  0  0
    4.7812   -1.1104    0.0000 C   0  0  0  0  0  0  0  0  0  0  0  0
    5.4957   -1.5229    0.0000 C   0  0  0  0  0  0  0  0  0  0  0  0
    5.4957   -2.3479    0.0000 C   0  0  0  0  0  0  0  0  0  0  0  0
    6.2102   -2.7604    0.0000 C   0  0  0  0  0  0  0  0  0  0  0  0
    6.9246   -2.3479    0.0000 C   0  0  0  0  0  0  0  0  0  0  0  0
    7.6391   -2.7604    0.0000 C   0  0  0  0  0  0  0  0  0  0  0  0
    7.6391   -3.5854    0.0000 C   0  0  0  0  0  0  0  0  0  0  0  0
    8.3536   -3.9979    0.0000 O   0  0  0  0  0  0  0  0  0  0  0  0
    6.9246   -3.9979    0.0000 C   0  0  0  0  0  0  0  0  0  0  0  0
    6.2102   -3.5854    0.0000 C   0  0  0  0  0  0  0  0  0  0  0  0
    4.7812   -2.7604    0.0000 C   0  0  0  0  0  0  0  0  0  0  0  0
    4.0668   -2.3479    0.0000 C   0  0  0  0  0  0  0  0  0  0  0  0
    2.6378   -1.5229    0.0000 C   0  0  0  0  0  0  0  0  0  0  0  0
    1.9233   -1.1104    0.0000 C   0  0  0  0  0  0  0  0  0  0  0  0
    1.1387   -1.3654    0.0000 N   0  0  0  0  0  0  0  0  0  0  0  0
  1  2  1  0  0  0  0
  2  3  4  0  0  0  0
  3  4  4  0  0  0  0
  4  5  4  0  0  0  0
  5  6  1  0  0  0  0
  6  7  2  0  0  0  0
  6  8  1  0  0  0  0
  5  9  4  0  0  0  0
  9 10  4  0  0  0  0
 10 11  1  0  0  0  0
 11 12  4  0  0  0  0
 12 13  4  0  0  0  0
 13 14  4  0  0  0  0
 14 15  1  0  0  0  0
 15 16  4  0  0  0  0
 16 17  4  0  0  0  0
 17 18  4  0  0  0  0
 18 19  1  0  0  0  0
 18 20  4  0  0  0  0
 20 21  4  0  0  0  0
 15 21  4  0  0  0  0
 14 22  4  0  0  0  0
 22 23  4  0  0  0  0
 11 23  4  0  0  0  0
 10 24  4  0  0  0  0
 24 25  4  0  0  0  0
  4 25  4  0  0  0  0
 25 26  4  0  0  0  0
  2 26  4  0  0  0  0
M  STY  1   1 DAT
M  SAL   1  1  26
M  SDT   1 MRV_IMPLICIT_H                                        
M  SDD   1     0.5304   -0.4125    DR    ALL  0       0  
M  SED   1 IMPL_H1
M  END
> <IC50(uM)>
0.0325

> <Outcome>
1.0

> <BindingDB ID>
1045590; 51390140

> <BindingDB MonomerID>
501648

> <BindingDB Ligand Name>
US11028054, Example 20

> <Curation/DataSource>
US Patent; ChEMBL

> <Article DOI>
?

> <PMID>
?; 33214811

> <Patent Number>
US11028054; ?

> <Authors>
Thunuguntla, SS; Hosahalli, S; Panigrahi, SK; Schwarz, M; Arit, M; Abdel-Magid, AF

> <Link to Ligand in BindingDB>
http://www.bindingdb.org/bind/chemsearch/marvin/MolStructure.jsp?monomerid=501648

> <Link to Ligand-Target Pair in BindingDB>
http://www.bindingdb.org/jsp/dbsearch/PrimarySearch_ki.jsp?energyterm=kJ/mole&tag=r21&monomerid=501648&enzyme=Dihydroorotate+dehydrogenase&column=ki&startPg=0&Increment=50&submit=Search

> <PubChem CID>
?; 146525333

> <PubChem SID>
?; 459086980

$$$$

  Mrv2115 07222212352D          

 21 22  0  0  0  0            999 V2000
    1.3222   -0.0616    0.0000 C   0  0  0  0  0  0  0  0  0  0  0  0
    2.0367   -0.4741    0.0000 C   0  0  0  0  0  0  0  0  0  0  0  0
    2.7512   -0.0616    0.0000 O   0  0  0  0  0  0  0  0  0  0  0  0
    2.0367   -1.2991    0.0000 C   0  0  0  0  0  0  0  0  0  0  0  0
    2.7041   -1.7840    0.0000 S   0  0  0  0  0  0  0  0  0  0  0  0
    2.4492   -2.5687    0.0000 C   0  0  0  0  0  0  0  0  0  0  0  0
    2.9341   -3.2361    0.0000 N   0  0  0  0  0  0  0  0  0  0  0  0
    2.5986   -3.9898    0.0000 C   0  0  0  0  0  0  0  0  0  0  0  0
    3.0835   -4.6572    0.0000 C   0  0  0  0  0  0  0  0  0  0  0  0
    2.7479   -5.4109    0.0000 C   0  0  0  0  0  0  0  0  0  0  0  0
    1.9275   -5.4971    0.0000 C   0  0  0  0  0  0  0  0  0  0  0  0
    1.5919   -6.2508    0.0000 Cl  0  0  0  0  0  0  0  0  0  0  0  0
    1.4425   -4.8297    0.0000 C   0  0  0  0  0  0  0  0  0  0  0  0
    0.6221   -4.9159    0.0000 C   0  0  0  0  0  0  0  0  0  0  0  0
   -0.1984   -5.0021    0.0000 F   0  0  0  0  0  0  0  0  0  0  0  0
    0.5358   -4.0954    0.0000 F   0  0  0  0  0  0  0  0  0  0  0  0
    0.7083   -5.7364    0.0000 F   0  0  0  0  0  0  0  0  0  0  0  0
    1.7781   -4.0760    0.0000 C   0  0  0  0  0  0  0  0  0  0  0  0
    1.6242   -2.5687    0.0000 N   0  0  0  0  0  0  0  0  0  0  0  0
    1.3693   -1.7840    0.0000 C   0  0  0  0  0  0  0  0  0  0  0  0
    0.5846   -1.5291    0.0000 C   0  0  0  0  0  0  0  0  0  0  0  0
  1  2  1  0  0  0  0
  2  3  2  0  0  0  0
  2  4  1  0  0  0  0
  4  5  4  0  0  0  0
  5  6  4  0  0  0  0
  6  7  1  0  0  0  0
  7  8  1  0  0  0  0
  8  9  4  0  0  0  0
  9 10  4  0  0  0  0
 10 11  4  0  0  0  0
 11 12  1  0  0  0  0
 11 13  4  0  0  0  0
 13 14  1  0  0  0  0
 14 15  1  0  0  0  0
 14 16  1  0  0  0  0
 14 17  1  0  0  0  0
 13 18  4  0  0  0  0
  8 18  4  0  0  0  0
  6 19  4  0  0  0  0
 19 20  4  0  0  0  0
  4 20  4  0  0  0  0
 20 21  1  0  0  0  0
M  END
> <IC50(uM)>
2.346

> <Outcome>
0.0

> <BindingDB ID>
50312478

> <BindingDB MonomerID>
50071790

> <BindingDB Ligand Name>
CHEMBL3410574

> <Curation/DataSource>
ChEMBL

> <Article DOI>
10.1021/jm501127s

> <PMID>
25580811

> <Patent Number>
?

> <Authors>
Zhu, J; Han, L; Diao, Y; Ren, X; Xu, M; Xu, L; Li, S; Li, Q; Dong, D; Huang, J; Liu, X; Zhao, Z; Wang, R; Zhu, L; Xu, Y; Qian, X; Li, H

> <Link to Ligand in BindingDB>
http://www.bindingdb.org/bind/chemsearch/marvin/MolStructure.jsp?monomerid=50071790

> <Link to Ligand-Target Pair in BindingDB>
http://www.bindingdb.org/jsp/dbsearch/PrimarySearch_ki.jsp?energyterm=kJ/mole&tag=r21&monomerid=50071790&enzyme=Dihydroorotate+dehydrogenase&column=ki&startPg=0&Increment=50&submit=Search

> <PubChem CID>
118732493

> <PubChem SID>
103965500

$$$$

  Mrv2115 07222212352D          

 26 29  0  0  0  0            999 V2000
    7.9865   -0.7364    0.0000 C   0  0  0  0  0  0  0  0  0  0  0  0
    7.1660   -0.6502    0.0000 C   0  0  0  0  0  0  0  0  0  0  0  0
    6.8305    0.1035    0.0000 O   0  0  0  0  0  0  0  0  0  0  0  0
    6.0100    0.1898    0.0000 C   0  0  0  0  0  0  0  0  0  0  0  0
    5.5251   -0.4777    0.0000 O   0  0  0  0  0  0  0  0  0  0  0  0
    5.6744    0.9434    0.0000 C   0  0  0  0  0  0  0  0  0  0  0  0
    4.8675    1.1150    0.0000 S   0  0  0  0  0  0  0  0  0  0  0  0
    4.7812    1.9354    0.0000 C   0  0  0  0  0  0  0  0  0  0  0  0
    4.0668    2.3479    0.0000 N   0  0  0  0  0  0  0  0  0  0  0  0
    3.3523    1.9354    0.0000 C   0  0  0  0  0  0  0  0  0  0  0  0
    3.3523    1.1104    0.0000 C   0  0  0  0  0  0  0  0  0  0  0  0
    2.6378    0.6979    0.0000 C   0  0  0  0  0  0  0  0  0  0  0  0
    1.9233    1.1104    0.0000 C   0  0  0  0  0  0  0  0  0  0  0  0
    1.9233    1.9354    0.0000 C   0  0  0  0  0  0  0  0  0  0  0  0
    2.6378    2.3479    0.0000 C   0  0  0  0  0  0  0  0  0  0  0  0
    1.1387    2.1904    0.0000 C   0  0  0  0  0  0  0  0  0  0  0  0
    0.6538    1.5229    0.0000 C   0  0  0  0  0  0  0  0  0  0  0  0
    1.1387    0.8555    0.0000 C   0  0  0  0  0  0  0  0  0  0  0  0
    5.5349    2.2710    0.0000 N   0  0  0  0  0  0  0  0  0  0  0  0
    6.0869    1.6579    0.0000 C   0  0  0  0  0  0  0  0  0  0  0  0
    6.9074    1.7441    0.0000 C   0  0  0  0  0  0  0  0  0  0  0  0
    7.2430    2.4978    0.0000 C   0  0  0  0  0  0  0  0  0  0  0  0
    8.0635    2.5841    0.0000 C   0  0  0  0  0  0  0  0  0  0  0  0
    8.5484    1.9166    0.0000 C   0  0  0  0  0  0  0  0  0  0  0  0
    8.2128    1.1629    0.0000 C   0  0  0  0  0  0  0  0  0  0  0  0
    7.3923    1.0767    0.0000 C   0  0  0  0  0  0  0  0  0  0  0  0
  1  2  1  0  0  0  0
  2  3  1  0  0  0  0
  3  4  1  0  0  0  0
  4  5  2  0  0  0  0
  4  6  1  0  0  0  0
  6  7  4  0  0  0  0
  7  8  4  0  0  0  0
  8  9  1  0  0  0  0
  9 10  1  0  0  0  0
 10 11  4  0  0  0  0
 11 12  4  0  0  0  0
 12 13  4  0  0  0  0
 13 14  4  0  0  0  0
 14 15  4  0  0  0  0
 10 15  4  0  0  0  0
 14 16  1  0  0  0  0
 16 17  1  0  0  0  0
 17 18  1  0  0  0  0
 13 18  1  0  0  0  0
  8 19  4  0  0  0  0
 19 20  4  0  0  0  0
  6 20  4  0  0  0  0
 20 21  1  0  0  0  0
 21 22  4  0  0  0  0
 22 23  4  0  0  0  0
 23 24  4  0  0  0  0
 24 25  4  0  0  0  0
 25 26  4  0  0  0  0
 21 26  4  0  0  0  0
M  END
> <IC50(uM)>
0.026

> <Outcome>
1.0

> <BindingDB ID>
50312258

> <BindingDB MonomerID>
50071581

> <BindingDB Ligand Name>
CHEMBL3410607

> <Curation/DataSource>
ChEMBL

> <Article DOI>
10.1021/jm501127s

> <PMID>
25580811

> <Patent Number>
?

> <Authors>
Zhu, J; Han, L; Diao, Y; Ren, X; Xu, M; Xu, L; Li, S; Li, Q; Dong, D; Huang, J; Liu, X; Zhao, Z; Wang, R; Zhu, L; Xu, Y; Qian, X; Li, H

> <Link to Ligand in BindingDB>
http://www.bindingdb.org/bind/chemsearch/marvin/MolStructure.jsp?monomerid=50071581

> <Link to Ligand-Target Pair in BindingDB>
http://www.bindingdb.org/jsp/dbsearch/PrimarySearch_ki.jsp?energyterm=kJ/mole&tag=r21&monomerid=50071581&enzyme=Dihydroorotate+dehydrogenase&column=ki&startPg=0&Increment=50&submit=Search

> <PubChem CID>
118096604

> <PubChem SID>
313072544

$$$$

  Mrv2115 07222212352D          

 42 46  0  0  0  0            999 V2000
   -5.1659   -2.8414    0.0000 C   0  0  0  0  0  0  0  0  0  0  0  0
   -5.5784   -2.1269    0.0000 C   0  0  0  0  0  0  0  0  0  0  0  0
   -6.4034   -2.1269    0.0000 C   0  0  0  0  0  0  0  0  0  0  0  0
   -6.8159   -1.4124    0.0000 C   0  0  0  0  0  0  0  0  0  0  0  0
   -7.6409   -1.4124    0.0000 C   0  0  0  0  0  0  0  0  0  0  0  0
   -8.0534   -2.1269    0.0000 O   0  0  0  0  0  0  0  0  0  0  0  0
   -8.0534   -0.6979    0.0000 O   0  0  0  0  0  0  0  0  0  0  0  0
   -8.8784   -0.6979    0.0000 C   0  0  0  0  0  0  0  0  0  0  0  0
   -9.7034   -0.6979    0.0000 C   0  0  0  0  0  0  0  0  0  0  0  0
   -8.8784   -1.5229    0.0000 C   0  0  0  0  0  0  0  0  0  0  0  0
   -8.8784    0.1271    0.0000 C   0  0  0  0  0  0  0  0  0  0  0  0
   -6.4034   -0.6979    0.0000 C   0  0  0  0  0  0  0  0  0  0  0  0
   -5.5784   -0.6979    0.0000 C   0  0  0  0  0  0  0  0  0  0  0  0
   -5.1659   -1.4124    0.0000 C   0  0  0  0  0  0  0  0  0  0  0  0
   -4.3409   -1.4124    0.0000 N   0  0  0  0  0  0  0  0  0  0  0  0
   -3.9284   -0.6979    0.0000 C   0  0  0  0  0  0  0  0  0  0  0  0
   -4.3409    0.0165    0.0000 O   0  0  0  0  0  0  0  0  0  0  0  0
   -3.1034   -0.6979    0.0000 C   0  0  0  0  0  0  0  0  0  0  0  0
   -2.6909    0.0165    0.0000 C   0  0  0  0  0  0  0  0  0  0  0  0
   -1.8659    0.0165    0.0000 C   0  0  0  0  0  0  0  0  0  0  0  0
   -1.4534   -0.6979    0.0000 C   0  0  0  0  0  0  0  0  0  0  0  0
   -0.6284   -0.6979    0.0000 N   0  0  0  0  0  0  0  0  0  0  0  0
   -0.1435   -1.3654    0.0000 N   0  0  0  0  0  0  0  0  0  0  0  0
    0.6411   -1.1104    0.0000 C   0  0  0  0  0  0  0  0  0  0  0  0
    0.6411   -0.2854    0.0000 N   0  0  0  0  0  0  0  0  0  0  0  0
   -0.1435   -0.0305    0.0000 C   0  0  0  0  0  0  0  0  0  0  0  0
   -0.3984    0.7541    0.0000 O   0  0  0  0  0  0  0  0  0  0  0  0
    1.3556    0.1271    0.0000 C   0  0  0  0  0  0  0  0  0  0  0  0
    2.0701   -0.2854    0.0000 C   0  0  0  0  0  0  0  0  0  0  0  0
    2.0701   -1.1104    0.0000 C   0  0  0  0  0  0  0  0  0  0  0  0
    1.3556   -1.5229    0.0000 C   0  0  0  0  0  0  0  0  0  0  0  0
   -1.8659   -1.4124    0.0000 C   0  0  0  0  0  0  0  0  0  0  0  0
   -2.6909   -1.4124    0.0000 C   0  0  0  0  0  0  0  0  0  0  0  0
   -3.1034   -2.1269    0.0000 O   0  0  0  0  0  0  0  0  0  0  0  0
   -2.6909   -2.8414    0.0000 C   0  0  0  0  0  0  0  0  0  0  0  0
   -1.8659   -2.8414    0.0000 C   0  0  0  0  0  0  0  0  0  0  0  0
   -3.1034   -3.5558    0.0000 C   0  0  0  0  0  0  0  0  0  0  0  0
   -2.6909   -4.2703    0.0000 C   0  0  0  0  0  0  0  0  0  0  0  0
   -3.1034   -4.9848    0.0000 C   0  0  0  0  0  0  0  0  0  0  0  0
   -3.9284   -4.9848    0.0000 C   0  0  0  0  0  0  0  0  0  0  0  0
   -4.3409   -4.2703    0.0000 C   0  0  0  0  0  0  0  0  0  0  0  0
   -3.9284   -3.5558    0.0000 C   0  0  0  0  0  0  0  0  0  0  0  0
  1  2  1  0  0  0  0
  2  3  4  0  0  0  0
  3  4  4  0  0  0  0
  4  5  1  0  0  0  0
  5  6  2  0  0  0  0
  5  7  1  0  0  0  0
  7  8  1  0  0  0  0
  8  9  1  0  0  0  0
  8 10  1  0  0  0  0
  8 11  1  0  0  0  0
  4 12  4  0  0  0  0
 12 13  4  0  0  0  0
 13 14  4  0  0  0  0
  2 14  4  0  0  0  0
 14 15  1  0  0  0  0
 15 16  1  0  0  0  0
 16 17  2  0  0  0  0
 16 18  1  0  0  0  0
 18 19  4  0  0  0  0
 19 20  4  0  0  0  0
 20 21  4  0  0  0  0
 21 22  1  0  0  0  0
 22 23  4  0  0  0  0
 23 24  4  0  0  0  0
 24 25  4  0  0  0  0
 25 26  4  0  0  0  0
 22 26  4  0  0  0  0
 26 27  2  0  0  0  0
 25 28  1  0  0  0  0
 28 29  1  0  0  0  0
 29 30  1  0  0  0  0
 30 31  1  0  0  0  0
 24 31  1  0  0  0  0
 21 32  4  0  0  0  0
 32 33  4  0  0  0  0
 18 33  4  0  0  0  0
 33 34  1  0  0  0  0
 34 35  1  0  0  0  0
 35 36  1  0  0  0  0
 35 37  1  0  0  0  0
 37 38  1  0  0  0  0
 38 39  1  0  0  0  0
 39 40  1  0  0  0  0
 40 41  1  0  0  0  0
 41 42  1  0  0  0  0
 37 42  1  0  0  0  0
M  END
> <IC50(uM)>
0.04005

> <Outcome>
1.0

> <BindingDB ID>
1020536; 1020535

> <BindingDB MonomerID>
490479

> <BindingDB Ligand Name>
US10968216, Example 147::tert-butyl 4-({2-[(1S)-1-cyclohexylethoxy]-4-(3-oxo-5,6,7,8-tetrahydro[1,2,4]triazolo[4,3-a]-pyridin-2(3H)-yl)benzoyl}amino)-3-methylbenzoate

> <Curation/DataSource>
US Patent

> <Article DOI>
?

> <PMID>
?

> <Patent Number>
US10968216

> <Authors>
Gradl, SN; Nguyen, D; Eis, K; Gunther, J; Stellfeld, T; Janzer, A; Christian, S; Mueller, T; Sheikh, SE; Zhou, HJ; Zhao, C; Sykes, DB; Ferrara, SJ; Liu, K; Herbert, SA; Merz, C; Niehues, M; Nising, CF; Schafer, M; Zimmermann, K; Knablein, J; Thede, K; Faupel, T

> <Link to Ligand in BindingDB>
http://www.bindingdb.org/bind/chemsearch/marvin/MolStructure.jsp?monomerid=490479

> <Link to Ligand-Target Pair in BindingDB>
http://www.bindingdb.org/jsp/dbsearch/PrimarySearch_ki.jsp?energyterm=kJ/mole&tag=r21&monomerid=490479&enzyme=Dihydroorotate+dehydrogenase&column=ki&startPg=0&Increment=50&submit=Search

> <PubChem CID>
134473968

> <PubChem SID>
447117206

$$$$

  Mrv2115 07222212352D          

 35 37  0  0  0  0            999 V2000
    2.1434   -3.7125    0.0000 C   0  0  0  0  0  0  0  0  0  0  0  0
    1.4289   -4.1250    0.0000 C   0  0  0  0  0  0  0  0  0  0  0  0
    1.4289   -4.9500    0.0000 N   0  0  0  0  0  0  0  0  0  0  0  0
    0.7615   -5.4349    0.0000 C   0  0  0  0  0  0  0  0  0  0  0  0
   -0.0231   -5.1800    0.0000 C   0  0  0  0  0  0  0  0  0  0  0  0
   -0.1946   -4.3730    0.0000 O   0  0  0  0  0  0  0  0  0  0  0  0
    1.0164   -6.2195    0.0000 N   0  0  0  0  0  0  0  0  0  0  0  0
    1.8414   -6.2195    0.0000 N   0  0  0  0  0  0  0  0  0  0  0  0
    2.3264   -6.8870    0.0000 C   0  0  0  0  0  0  0  0  0  0  0  0
    3.1468   -6.8007    0.0000 C   0  0  0  0  0  0  0  0  0  0  0  0
    3.6318   -7.4682    0.0000 C   0  0  0  0  0  0  0  0  0  0  0  0
    4.4522   -7.3820    0.0000 O   0  0  0  0  0  0  0  0  0  0  0  0
    4.7878   -6.6283    0.0000 C   0  0  0  0  0  0  0  0  0  0  0  0
    4.3029   -5.9608    0.0000 C   0  0  0  0  0  0  0  0  0  0  0  0
    5.6083   -6.5420    0.0000 C   0  0  0  0  0  0  0  0  0  0  0  0
    5.6945   -7.3625    0.0000 F   0  0  0  0  0  0  0  0  0  0  0  0
    5.5221   -5.7216    0.0000 F   0  0  0  0  0  0  0  0  0  0  0  0
    6.4288   -6.4558    0.0000 F   0  0  0  0  0  0  0  0  0  0  0  0
    3.2962   -8.2219    0.0000 C   0  0  0  0  0  0  0  0  0  0  0  0
    3.7811   -8.8893    0.0000 C   0  0  0  0  0  0  0  0  0  0  0  0
    3.4456   -9.6430    0.0000 O   0  0  0  0  0  0  0  0  0  0  0  0
    4.6016   -8.8031    0.0000 N   0  0  0  0  0  0  0  0  0  0  0  0
    5.0865   -9.4705    0.0000 C   0  0  0  0  0  0  0  0  0  0  0  0
    5.9070   -9.3843    0.0000 C   0  0  0  0  0  0  0  0  0  0  0  0
    6.2426   -8.6306    0.0000 F   0  0  0  0  0  0  0  0  0  0  0  0
    6.3919  -10.0517    0.0000 C   0  0  0  0  0  0  0  0  0  0  0  0
    6.0564  -10.8054    0.0000 C   0  0  0  0  0  0  0  0  0  0  0  0
    5.2359  -10.8916    0.0000 C   0  0  0  0  0  0  0  0  0  0  0  0
    4.7510  -10.2242    0.0000 C   0  0  0  0  0  0  0  0  0  0  0  0
    3.9305  -10.3104    0.0000 Cl  0  0  0  0  0  0  0  0  0  0  0  0
    2.4757   -8.3081    0.0000 C   0  0  0  0  0  0  0  0  0  0  0  0
    1.9908   -7.6407    0.0000 C   0  0  0  0  0  0  0  0  0  0  0  0
    1.1703   -7.7269    0.0000 F   0  0  0  0  0  0  0  0  0  0  0  0
    2.0964   -5.4349    0.0000 C   0  0  0  0  0  0  0  0  0  0  0  0
    2.8810   -5.1800    0.0000 O   0  0  0  0  0  0  0  0  0  0  0  0
  1  2  1  0  0  0  0
  2  3  1  0  0  0  0
  3  4  4  0  0  0  0
  4  5  1  0  0  0  0
  5  6  1  0  0  0  0
  4  7  4  0  0  0  0
  7  8  4  0  0  0  0
  8  9  1  0  0  0  0
  9 10  4  0  0  0  0
 10 11  4  0  0  0  0
 11 12  1  0  0  0  0
 12 13  1  0  0  0  0
 13 14  1  0  0  0  0
 13 15  1  0  0  0  0
 15 16  1  0  0  0  0
 15 17  1  0  0  0  0
 15 18  1  0  0  0  0
 11 19  4  0  0  0  0
 19 20  1  0  0  0  0
 20 21  2  0  0  0  0
 20 22  1  0  0  0  0
 22 23  1  0  0  0  0
 23 24  4  0  0  0  0
 24 25  1  0  0  0  0
 24 26  4  0  0  0  0
 26 27  4  0  0  0  0
 27 28  4  0  0  0  0
 28 29  4  0  0  0  0
 23 29  4  0  0  0  0
 29 30  1  0  0  0  0
 19 31  4  0  0  0  0
 31 32  4  0  0  0  0
  9 32  4  0  0  0  0
 32 33  1  0  0  0  0
  8 34  4  0  0  0  0
  3 34  4  0  0  0  0
 34 35  2  0  0  0  0
M  END
> <IC50(uM)>
0.00417

> <Outcome>
1.0

> <BindingDB ID>
1098733; 972579

> <BindingDB MonomerID>
470454

> <BindingDB Ligand Name>
N-(2-chloro-6-fluorophenyl)-4-[4-ethyl-3-(hydroxymethyl)-5-oxo-4,5-dihydro-1H-1,2,4-triazol-1-yl]-5-fluoro-2-{[(2S)-1,1,1-trifluoropropan-2-yl]oxy}benzamide::US10815215, Example 121::US11130745, Example 121; N-(2-chloro-6-fluorophenyl)-4-[4-ethyl-3-(hydroxymethyl)-5-oxo-4,5-dihydro-1H-1,2,4-triazol-1-yl]-5-fluoro-2-{[(2S)-1,1,1-trifluoropropan-2-yl]oxy}benzamide::US10815215, Example 121

> <Curation/DataSource>
US Patent

> <Article DOI>
?

> <PMID>
?

> <Patent Number>
US11130745; US10815215

> <Authors>
Gradl, SN; Nguyen, D; Eis, K; Gunther, J; Stellfeld, T; Janzer, A; Christian, S; Muller, T; Sheikh, SE; Sykes, DB; Ferrara, SJ; Krober, M; Merz, C; Niehues, M; Schafer, M; Zimmermann, K; Nising, CF; Gradl, SN; Nguyen, D; Eis, K; Gunther, J; Stellfeld, T; Janzer, A; Christian, S; Muller, T; Sheikh, SE; Zhou, HJ; Zhao, C; Sykes, DB; Ferrara, SJ; Liu, K; Krober, M; Merz, C; Niehues, M; Schafer, M; Zimmermann, K; Nising, CF

> <Link to Ligand in BindingDB>
http://www.bindingdb.org/bind/chemsearch/marvin/MolStructure.jsp?monomerid=470454

> <Link to Ligand-Target Pair in BindingDB>
http://www.bindingdb.org/jsp/dbsearch/PrimarySearch_ki.jsp?energyterm=kJ/mole&tag=r21&monomerid=470454&enzyme=Dihydroorotate+dehydrogenase&column=ki&startPg=0&Increment=50&submit=Search

> <PubChem CID>
134470179

> <PubChem SID>
441609631

$$$$

  Mrv2115 07222212352D          

 23 25  0  0  0  0            999 V2000
   -0.7145   -1.2375    0.0000 O   0  0  0  0  0  0  0  0  0  0  0  0
    0.0000   -1.6500    0.0000 C   0  0  0  0  0  0  0  0  0  0  0  0
    0.0000   -2.4750    0.0000 N   0  0  0  0  0  0  0  0  0  0  0  0
   -0.7145   -2.8875    0.0000 C   0  0  0  0  0  0  0  0  0  0  0  0
   -1.4289   -2.4750    0.0000 C   0  0  0  0  0  0  0  0  0  0  0  0
   -2.1434   -2.8875    0.0000 C   0  0  0  0  0  0  0  0  0  0  0  0
   -2.1434   -3.7125    0.0000 C   0  0  0  0  0  0  0  0  0  0  0  0
   -1.4289   -4.1250    0.0000 C   0  0  0  0  0  0  0  0  0  0  0  0
   -0.7145   -3.7125    0.0000 C   0  0  0  0  0  0  0  0  0  0  0  0
    0.0000   -4.1250    0.0000 C   0  0  0  0  0  0  0  0  0  0  0  0
    0.7145   -3.7125    0.0000 O   0  0  0  0  0  0  0  0  0  0  0  0
    0.0000   -4.9500    0.0000 O   0  0  0  0  0  0  0  0  0  0  0  0
    0.7145   -1.2375    0.0000 C   0  0  0  0  0  0  0  0  0  0  0  0
    0.7145   -0.4125    0.0000 C   0  0  0  0  0  0  0  0  0  0  0  0
    1.4289    0.0000    0.0000 C   0  0  0  0  0  0  0  0  0  0  0  0
    2.1434   -0.4125    0.0000 C   0  0  0  0  0  0  0  0  0  0  0  0
    2.8579    0.0000    0.0000 C   0  0  0  0  0  0  0  0  0  0  0  0
    3.5724   -0.4125    0.0000 C   0  0  0  0  0  0  0  0  0  0  0  0
    4.2868   -0.0000    0.0000 Br  0  0  0  0  0  0  0  0  0  0  0  0
    3.5724   -1.2375    0.0000 C   0  0  0  0  0  0  0  0  0  0  0  0
    2.8579   -1.6500    0.0000 C   0  0  0  0  0  0  0  0  0  0  0  0
    2.1434   -1.2375    0.0000 C   0  0  0  0  0  0  0  0  0  0  0  0
    1.4289   -1.6500    0.0000 C   0  0  0  0  0  0  0  0  0  0  0  0
  1  2  2  0  0  0  0
  2  3  1  0  0  0  0
  3  4  1  0  0  0  0
  4  5  4  0  0  0  0
  5  6  4  0  0  0  0
  6  7  4  0  0  0  0
  7  8  4  0  0  0  0
  8  9  4  0  0  0  0
  4  9  4  0  0  0  0
  9 10  1  0  0  0  0
 10 11  2  0  0  0  0
 10 12  1  0  0  0  0
  2 13  1  0  0  0  0
 13 14  4  0  0  0  0
 14 15  4  0  0  0  0
 15 16  4  0  0  0  0
 16 17  4  0  0  0  0
 17 18  4  0  0  0  0
 18 19  1  0  0  0  0
 18 20  4  0  0  0  0
 20 21  4  0  0  0  0
 21 22  4  0  0  0  0
 16 22  4  0  0  0  0
 22 23  4  0  0  0  0
 13 23  4  0  0  0  0
M  END
> <IC50(uM)>
8.4

> <Outcome>
0.0

> <BindingDB ID>
29201

> <BindingDB MonomerID>
16096

> <BindingDB Ligand Name>
2-[(6-bromonaphthalene-2-)amido]benzoic acid::2-{[(6-bromonaphthalen-2-yl)carbonyl]amino}benzoic acid::Inhibitor 4

> <Curation/DataSource>
Curated from the literature by BindingDB

> <Article DOI>
10.1016/j.bmcl.2005.09.045

> <PMID>
16236496

> <Patent Number>
?

> <Authors>
Heikkila, T; Thirumalairajan, S; Davies, M; Parsons, MR; McConkey, AG; Fishwick, CW; Johnson, AP

> <Link to Ligand in BindingDB>
http://www.bindingdb.org/bind/chemsearch/marvin/MolStructure.jsp?monomerid=16096

> <Link to Ligand-Target Pair in BindingDB>
http://www.bindingdb.org/jsp/dbsearch/PrimarySearch_ki.jsp?energyterm=kJ/mole&tag=r21&monomerid=16096&enzyme=Dihydroorotate+dehydrogenase&column=ki&startPg=0&Increment=50&submit=Search

> <PubChem CID>
23647297

> <PubChem SID>
46516357

$$$$

  Mrv2115 07222212352D          

 28 30  0  0  0  0            999 V2000
   -2.8579   12.1286    0.0000 C   0  0  0  0  0  0  0  0  0  0  0  0
   -2.1434   11.7161    0.0000 C   0  0  0  0  0  0  0  0  0  0  0  0
   -2.1434   10.8911    0.0000 O   0  0  0  0  0  0  0  0  0  0  0  0
   -1.4289   10.4786    0.0000 C   0  0  0  0  0  0  0  0  0  0  0  0
   -0.7145   10.8911    0.0000 C   0  0  0  0  0  0  0  0  0  0  0  0
   -0.0000   10.4786    0.0000 C   0  0  0  0  0  0  0  0  0  0  0  0
   -0.0000    9.6536    0.0000 C   0  0  0  0  0  0  0  0  0  0  0  0
   -0.7145    9.2411    0.0000 C   0  0  0  0  0  0  0  0  0  0  0  0
   -0.7145    8.4161    0.0000 C   0  0  0  0  0  0  0  0  0  0  0  0
   -0.0000    8.0036    0.0000 C   0  0  0  0  0  0  0  0  0  0  0  0
   -0.0000    7.1786    0.0000 C   0  0  0  0  0  0  0  0  0  0  0  0
    0.7145    6.7661    0.0000 F   0  0  0  0  0  0  0  0  0  0  0  0
   -0.7145    6.7661    0.0000 C   0  0  0  0  0  0  0  0  0  0  0  0
   -0.7145    5.9411    0.0000 N   0  0  0  0  0  0  0  0  0  0  0  0
   -0.0000    5.5286    0.0000 C   0  0  0  0  0  0  0  0  0  0  0  0
    0.7145    5.9411    0.0000 O   0  0  0  0  0  0  0  0  0  0  0  0
   -0.0000    4.7036    0.0000 C   0  0  0  0  0  0  0  0  0  0  0  0
    0.6674    4.2187    0.0000 C   0  0  0  0  0  0  0  0  0  0  0  0
    1.4521    4.4736    0.0000 C   0  0  0  0  0  0  0  0  0  0  0  0
    1.6236    5.2806    0.0000 O   0  0  0  0  0  0  0  0  0  0  0  0
    2.0652    3.9216    0.0000 O   0  0  0  0  0  0  0  0  0  0  0  0
    0.4125    3.4340    0.0000 C   0  0  0  0  0  0  0  0  0  0  0  0
   -0.4125    3.4340    0.0000 C   0  0  0  0  0  0  0  0  0  0  0  0
   -0.6674    4.2187    0.0000 C   0  0  0  0  0  0  0  0  0  0  0  0
   -1.4289    7.1786    0.0000 C   0  0  0  0  0  0  0  0  0  0  0  0
   -2.1434    6.7661    0.0000 F   0  0  0  0  0  0  0  0  0  0  0  0
   -1.4289    8.0036    0.0000 C   0  0  0  0  0  0  0  0  0  0  0  0
   -1.4289    9.6536    0.0000 C   0  0  0  0  0  0  0  0  0  0  0  0
  1  2  1  0  0  0  0
  2  3  1  0  0  0  0
  3  4  1  0  0  0  0
  4  5  4  0  0  0  0
  5  6  4  0  0  0  0
  6  7  4  0  0  0  0
  7  8  4  0  0  0  0
  8  9  1  0  0  0  0
  9 10  4  0  0  0  0
 10 11  4  0  0  0  0
 11 12  1  0  0  0  0
 11 13  4  0  0  0  0
 13 14  1  0  0  0  0
 14 15  1  0  0  0  0
 15 16  2  0  0  0  0
 15 17  1  0  0  0  0
 17 18  2  0  0  0  0
 18 19  1  0  0  0  0
 19 20  2  0  0  0  0
 19 21  1  0  0  0  0
 18 22  1  0  0  0  0
 22 23  1  0  0  0  0
 23 24  1  0  0  0  0
 17 24  1  0  0  0  0
 13 25  4  0  0  0  0
 25 26  1  0  0  0  0
 25 27  4  0  0  0  0
  9 27  4  0  0  0  0
  8 28  4  0  0  0  0
  4 28  4  0  0  0  0
M  END
> <IC50(uM)>
0.017

> <Outcome>
1.0

> <BindingDB ID>
50251719

> <BindingDB MonomerID>
50137303

> <BindingDB Ligand Name>
2-(3'-Ethoxy-3,5-difluoro-biphenyl-4-ylcarbamoyl)-cyclopent-1-enecarboxylic acid::CHEMBL351786

> <Curation/DataSource>
ChEMBL

> <Article DOI>
10.1016/j.bmcl.2003.10.021

> <PMID>
14684297

> <Patent Number>
?

> <Authors>
Leban, J; Saeb, W; Garcia, G; Baumgartner, R; Kramer, B

> <Link to Ligand in BindingDB>
http://www.bindingdb.org/bind/chemsearch/marvin/MolStructure.jsp?monomerid=50137303

> <Link to Ligand-Target Pair in BindingDB>
http://www.bindingdb.org/jsp/dbsearch/PrimarySearch_ki.jsp?energyterm=kJ/mole&tag=r21&monomerid=50137303&enzyme=Dihydroorotate+dehydrogenase&column=ki&startPg=0&Increment=50&submit=Search

> <PubChem CID>
21084752

> <PubChem SID>
104027469

$$$$

  Mrv2115 07222212352D          

 31 34  0  0  0  0            999 V2000
    2.8579   -4.9500    0.0000 C   0  0  0  0  0  0  0  0  0  0  0  0
    2.8579   -4.1250    0.0000 C   0  0  0  0  0  0  0  0  0  0  0  0
    2.1434   -3.7125    0.0000 O   0  0  0  0  0  0  0  0  0  0  0  0
    2.1434   -2.8875    0.0000 N   0  0  0  0  0  0  0  0  0  0  0  0
    1.4289   -2.4750    0.0000 C   0  0  0  0  0  0  0  0  0  0  0  0
    0.7145   -2.8875    0.0000 O   0  0  0  0  0  0  0  0  0  0  0  0
    1.4289   -1.6500    0.0000 C   0  0  0  0  0  0  0  0  0  0  0  0
    0.7145   -1.2375    0.0000 C   0  0  0  0  0  0  0  0  0  0  0  0
    0.0000   -1.6500    0.0000 C   0  0  0  0  0  0  0  0  0  0  0  0
    0.7145   -0.4125    0.0000 C   0  0  0  0  0  0  0  0  0  0  0  0
    0.0000    0.0000    0.0000 C   0  0  0  0  0  0  0  0  0  0  0  0
   -0.7145   -0.4125    0.0000 C   0  0  0  0  0  0  0  0  0  0  0  0
   -1.4289    0.0000    0.0000 C   0  0  0  0  0  0  0  0  0  0  0  0
   -1.4289    0.8250    0.0000 C   0  0  0  0  0  0  0  0  0  0  0  0
   -2.1434    1.2375    0.0000 C   0  0  0  0  0  0  0  0  0  0  0  0
   -2.8579    0.8250    0.0000 C   0  0  0  0  0  0  0  0  0  0  0  0
   -3.5724    1.2375    0.0000 C   0  0  0  0  0  0  0  0  0  0  0  0
   -3.5724    2.0625    0.0000 C   0  0  0  0  0  0  0  0  0  0  0  0
   -2.8579    2.4750    0.0000 C   0  0  0  0  0  0  0  0  0  0  0  0
   -2.1434    2.0625    0.0000 C   0  0  0  0  0  0  0  0  0  0  0  0
   -1.4289    2.4750    0.0000 F   0  0  0  0  0  0  0  0  0  0  0  0
   -0.7145    1.2375    0.0000 C   0  0  0  0  0  0  0  0  0  0  0  0
    0.0000    0.8250    0.0000 C   0  0  0  0  0  0  0  0  0  0  0  0
    1.4289    0.0000    0.0000 N   0  0  0  0  0  0  0  0  0  0  0  0
    2.1434   -0.4125    0.0000 C   0  0  0  0  0  0  0  0  0  0  0  0
    2.8579    0.0000    0.0000 C   0  0  0  0  0  0  0  0  0  0  0  0
    3.5724   -0.4125    0.0000 C   0  0  0  0  0  0  0  0  0  0  0  0
    3.5724   -1.2375    0.0000 C   0  0  0  0  0  0  0  0  0  0  0  0
    4.2868   -1.6500    0.0000 F   0  0  0  0  0  0  0  0  0  0  0  0
    2.8579   -1.6500    0.0000 C   0  0  0  0  0  0  0  0  0  0  0  0
    2.1434   -1.2375    0.0000 C   0  0  0  0  0  0  0  0  0  0  0  0
  1  2  1  0  0  0  0
  2  3  1  0  0  0  0
  3  4  1  0  0  0  0
  4  5  1  0  0  0  0
  5  6  2  0  0  0  0
  5  7  1  0  0  0  0
  7  8  4  0  0  0  0
  8  9  1  0  0  0  0
  8 10  4  0  0  0  0
 10 11  1  0  0  0  0
 11 12  4  0  0  0  0
 12 13  4  0  0  0  0
 13 14  4  0  0  0  0
 14 15  1  0  0  0  0
 15 16  4  0  0  0  0
 16 17  4  0  0  0  0
 17 18  4  0  0  0  0
 18 19  4  0  0  0  0
 19 20  4  0  0  0  0
 15 20  4  0  0  0  0
 20 21  1  0  0  0  0
 14 22  4  0  0  0  0
 22 23  4  0  0  0  0
 11 23  4  0  0  0  0
 10 24  4  0  0  0  0
 24 25  4  0  0  0  0
 25 26  4  0  0  0  0
 26 27  4  0  0  0  0
 27 28  4  0  0  0  0
 28 29  1  0  0  0  0
 28 30  4  0  0  0  0
 30 31  4  0  0  0  0
  7 31  4  0  0  0  0
 25 31  4  0  0  0  0
M  END
> <IC50(uM)>
0.004200000000000001

> <Outcome>
1.0

> <BindingDB ID>
51370199

> <BindingDB MonomerID>
50554027

> <BindingDB Ligand Name>
CHEMBL4797708

> <Curation/DataSource>
ChEMBL

> <Article DOI>
?

> <PMID>
33007394

> <Patent Number>
?

> <Authors>
DeRatt, LG; Christine Pietsch, E; Tanner, A; Shaffer, P; Jacoby, E; Wang, W; Kazmi, F; Zhang, X; Attar, RM; Edwards, JP; Kuduk, SD

> <Link to Ligand in BindingDB>
http://www.bindingdb.org/bind/chemsearch/marvin/MolStructure.jsp?monomerid=50554027

> <Link to Ligand-Target Pair in BindingDB>
http://www.bindingdb.org/jsp/dbsearch/PrimarySearch_ki.jsp?energyterm=kJ/mole&tag=r21&monomerid=50554027&enzyme=Dihydroorotate+dehydrogenase&column=ki&startPg=0&Increment=50&submit=Search

> <PubChem CID>
162675763

> <PubChem SID>
461692795

$$$$

  Mrv2115 07222212352D          

 21 22  0  0  0  0            999 V2000
    0.0000   -1.6500    0.0000 C   0  0  0  0  0  0  0  0  0  0  0  0
    0.0000   -2.4750    0.0000 C   0  0  0  0  0  0  0  0  0  0  0  0
    0.7145   -2.8875    0.0000 C   0  0  0  0  0  0  0  0  0  0  0  0
    1.4289   -2.4750    0.0000 C   0  0  0  0  0  0  0  0  0  0  0  0
    1.4289   -1.6500    0.0000 O   0  0  0  0  0  0  0  0  0  0  0  0
    2.1434   -2.8875    0.0000 N   0  0  0  0  0  0  0  0  0  0  0  0
    2.8579   -2.4750    0.0000 C   0  0  0  0  0  0  0  0  0  0  0  0
    2.8579   -1.6500    0.0000 C   0  0  0  0  0  0  0  0  0  0  0  0
    3.5724   -1.2375    0.0000 C   0  0  0  0  0  0  0  0  0  0  0  0
    4.2868   -1.6500    0.0000 C   0  0  0  0  0  0  0  0  0  0  0  0
    5.0013   -1.2375    0.0000 F   0  0  0  0  0  0  0  0  0  0  0  0
    4.2868   -2.4750    0.0000 C   0  0  0  0  0  0  0  0  0  0  0  0
    5.0013   -2.8875    0.0000 Cl  0  0  0  0  0  0  0  0  0  0  0  0
    3.5724   -2.8875    0.0000 C   0  0  0  0  0  0  0  0  0  0  0  0
    0.7145   -3.7125    0.0000 C   0  0  0  0  0  0  0  0  0  0  0  0
    0.0000   -4.1250    0.0000 C   0  0  0  0  0  0  0  0  0  0  0  0
   -0.7145   -3.7125    0.0000 C   0  0  0  0  0  0  0  0  0  0  0  0
   -0.7145   -2.8875    0.0000 C   0  0  0  0  0  0  0  0  0  0  0  0
   -1.4289   -2.4750    0.0000 N   0  3  0  0  0  0  0  0  0  0  0  0
   -2.1434   -2.8875    0.0000 O   0  0  0  0  0  0  0  0  0  0  0  0
   -1.4289   -1.6500    0.0000 O   0  5  0  0  0  0  0  0  0  0  0  0
  1  2  1  0  0  0  0
  2  3  4  0  0  0  0
  3  4  1  0  0  0  0
  4  5  2  0  0  0  0
  4  6  1  0  0  0  0
  6  7  1  0  0  0  0
  7  8  4  0  0  0  0
  8  9  4  0  0  0  0
  9 10  4  0  0  0  0
 10 11  1  0  0  0  0
 10 12  4  0  0  0  0
 12 13  1  0  0  0  0
 12 14  4  0  0  0  0
  7 14  4  0  0  0  0
  3 15  4  0  0  0  0
 15 16  4  0  0  0  0
 16 17  4  0  0  0  0
 17 18  4  0  0  0  0
  2 18  4  0  0  0  0
 18 19  1  0  0  0  0
 19 20  2  0  0  0  0
 19 21  1  0  0  0  0
M  CHG  2  19   1  21  -1
M  END
> <IC50(uM)>
116.0

> <Outcome>
0.0

> <BindingDB ID>
28098

> <BindingDB MonomerID>
15350

> <BindingDB Ligand Name>
ChemBridge compound no. 5::N-(3-chloro-4-fluorophenyl)-2-methyl-3-nitrobenzamide

> <Curation/DataSource>
Curated from the literature by BindingDB

> <Article DOI>
10.1074/jbc.M501100200

> <PMID>
15795226

> <Patent Number>
?

> <Authors>
Baldwin, J; Michnoff, CH; Malmquist, NA; White, J; Roth, MG; Rathod, PK; Phillips, MA

> <Link to Ligand in BindingDB>
http://www.bindingdb.org/bind/chemsearch/marvin/MolStructure.jsp?monomerid=15350

> <Link to Ligand-Target Pair in BindingDB>
http://www.bindingdb.org/jsp/dbsearch/PrimarySearch_ki.jsp?energyterm=kJ/mole&tag=r21&monomerid=15350&enzyme=Dihydroorotate+Dehydrogenase+%28DHODH%29&column=ki&startPg=0&Increment=50&submit=Search

> <PubChem CID>
2852875

> <PubChem SID>
46515651

$$$$

  Mrv2115 07222212352D          

 31 34  0  0  0  0            999 V2000
    0.7145   -2.8875    0.0000 C   0  0  0  0  0  0  0  0  0  0  0  0
    0.0000   -2.4750    0.0000 C   0  0  0  0  0  0  0  0  0  0  0  0
   -0.7145   -2.8875    0.0000 C   0  0  0  0  0  0  0  0  0  0  0  0
   -1.4289   -2.4750    0.0000 C   0  0  0  0  0  0  0  0  0  0  0  0
   -2.1434   -2.8875    0.0000 O   0  0  0  0  0  0  0  0  0  0  0  0
   -2.1434   -3.7125    0.0000 C   0  0  0  0  0  0  0  0  0  0  0  0
   -1.4289   -4.1250    0.0000 C   0  0  0  0  0  0  0  0  0  0  0  0
   -1.4289   -4.9500    0.0000 C   0  0  0  0  0  0  0  0  0  0  0  0
   -2.1434   -5.3625    0.0000 C   0  0  0  0  0  0  0  0  0  0  0  0
   -2.8579   -4.9500    0.0000 C   0  0  0  0  0  0  0  0  0  0  0  0
   -2.8579   -4.1250    0.0000 C   0  0  0  0  0  0  0  0  0  0  0  0
   -1.4289   -1.6500    0.0000 C   0  0  0  0  0  0  0  0  0  0  0  0
   -2.1434   -1.2375    0.0000 C   0  0  0  0  0  0  0  0  0  0  0  0
   -2.1434   -0.4125    0.0000 C   0  0  0  0  0  0  0  0  0  0  0  0
   -2.8579   -1.6500    0.0000 C   0  0  0  0  0  0  0  0  0  0  0  0
   -0.7145   -1.2375    0.0000 C   0  0  0  0  0  0  0  0  0  0  0  0
    0.0000   -1.6500    0.0000 C   0  0  0  0  0  0  0  0  0  0  0  0
    0.7145   -1.2375    0.0000 C   0  0  0  0  0  0  0  0  0  0  0  0
    0.7145   -0.4125    0.0000 C   0  0  0  0  0  0  0  0  0  0  0  0
    1.4289    0.0000    0.0000 C   0  0  0  0  0  0  0  0  0  0  0  0
    1.4289    0.8250    0.0000 C   0  0  0  0  0  0  0  0  0  0  0  0
    2.1434    1.2375    0.0000 O   0  0  0  0  0  0  0  0  0  0  0  0
    0.7145    1.2375    0.0000 O   0  0  0  0  0  0  0  0  0  0  0  0
    2.1434   -0.4125    0.0000 C   0  0  0  0  0  0  0  0  0  0  0  0
    2.8579    0.0000    0.0000 C   0  0  0  0  0  0  0  0  0  0  0  0
    3.5724   -0.4125    0.0000 C   0  0  0  0  0  0  0  0  0  0  0  0
    4.2868   -0.0000    0.0000 F   0  0  0  0  0  0  0  0  0  0  0  0
    3.5724   -1.2375    0.0000 C   0  0  0  0  0  0  0  0  0  0  0  0
    2.8579   -1.6500    0.0000 C   0  0  0  0  0  0  0  0  0  0  0  0
    2.1434   -1.2375    0.0000 C   0  0  0  0  0  0  0  0  0  0  0  0
    1.4289   -1.6500    0.0000 N   0  0  0  0  0  0  0  0  0  0  0  0
  1  2  1  0  0  0  0
  2  3  4  0  0  0  0
  3  4  4  0  0  0  0
  4  5  1  0  0  0  0
  5  6  1  0  0  0  0
  6  7  4  0  0  0  0
  7  8  4  0  0  0  0
  8  9  4  0  0  0  0
  9 10  4  0  0  0  0
 10 11  4  0  0  0  0
  6 11  4  0  0  0  0
  4 12  4  0  0  0  0
 12 13  1  0  0  0  0
 13 14  1  0  0  0  0
 13 15  1  0  0  0  0
 12 16  4  0  0  0  0
 16 17  4  0  0  0  0
  2 17  4  0  0  0  0
 17 18  1  0  0  0  0
 18 19  4  0  0  0  0
 19 20  4  0  0  0  0
 20 21  1  0  0  0  0
 21 22  2  0  0  0  0
 21 23  1  0  0  0  0
 20 24  4  0  0  0  0
 24 25  4  0  0  0  0
 25 26  4  0  0  0  0
 26 27  1  0  0  0  0
 26 28  4  0  0  0  0
 28 29  4  0  0  0  0
 29 30  4  0  0  0  0
 24 30  4  0  0  0  0
 30 31  4  0  0  0  0
 18 31  4  0  0  0  0
M  END
> <IC50(uM)>
0.001

> <Outcome>
1.0

> <BindingDB ID>
51064004

> <BindingDB MonomerID>
50434228

> <BindingDB Ligand Name>
CHEMBL2385512

> <Curation/DataSource>
ChEMBL

> <Article DOI>
10.1021/ml300464h

> <PMID>
23930152

> <Patent Number>
?

> <Authors>
Das, P; Deng, X; Zhang, L; Roth, MG; Fontoura, BM; Phillips, MA; De Brabander, JK

> <Link to Ligand in BindingDB>
http://www.bindingdb.org/bind/chemsearch/marvin/MolStructure.jsp?monomerid=50434228

> <Link to Ligand-Target Pair in BindingDB>
http://www.bindingdb.org/jsp/dbsearch/PrimarySearch_ki.jsp?energyterm=kJ/mole&tag=r21&monomerid=50434228&enzyme=Dihydroorotate+dehydrogenase&column=ki&startPg=0&Increment=50&submit=Search

> <PubChem CID>
71816353

> <PubChem SID>
175446545

$$$$

  Mrv2115 07222212352D          

 34 37  0  0  0  0            999 V2000
   -5.0710    1.6562    0.0000 C   0  0  0  0  0  0  0  0  0  0  0  0
   -4.2640    1.4847    0.0000 C   0  0  0  0  0  0  0  0  0  0  0  0
   -3.6509    2.0367    0.0000 C   0  0  0  0  0  0  0  0  0  0  0  0
   -2.9364    1.6242    0.0000 N   0  0  0  0  0  0  0  0  0  0  0  0
   -2.1827    1.9598    0.0000 C   0  0  0  0  0  0  0  0  0  0  0  0
   -3.1079    0.8172    0.0000 N   0  0  0  0  0  0  0  0  0  0  0  0
   -3.9284    0.7310    0.0000 C   0  0  0  0  0  0  0  0  0  0  0  0
   -4.3409    0.0165    0.0000 N   0  0  0  0  0  0  0  0  0  0  0  0
   -3.9284   -0.6979    0.0000 C   0  0  0  0  0  0  0  0  0  0  0  0
   -4.3409   -1.4124    0.0000 O   0  0  0  0  0  0  0  0  0  0  0  0
   -3.1034   -0.6979    0.0000 C   0  0  0  0  0  0  0  0  0  0  0  0
   -2.6909    0.0165    0.0000 C   0  0  0  0  0  0  0  0  0  0  0  0
   -1.8659    0.0165    0.0000 C   0  0  0  0  0  0  0  0  0  0  0  0
   -1.4534    0.7310    0.0000 F   0  0  0  0  0  0  0  0  0  0  0  0
   -1.4534   -0.6979    0.0000 C   0  0  0  0  0  0  0  0  0  0  0  0
   -0.6284   -0.6979    0.0000 N   0  0  0  0  0  0  0  0  0  0  0  0
   -0.1435   -1.3654    0.0000 N   0  0  0  0  0  0  0  0  0  0  0  0
    0.6411   -1.1104    0.0000 C   0  0  0  0  0  0  0  0  0  0  0  0
    0.6411   -0.2854    0.0000 N   0  0  0  0  0  0  0  0  0  0  0  0
   -0.1435   -0.0305    0.0000 C   0  0  0  0  0  0  0  0  0  0  0  0
   -0.3984    0.7541    0.0000 O   0  0  0  0  0  0  0  0  0  0  0  0
    1.3556    0.1271    0.0000 C   0  0  0  0  0  0  0  0  0  0  0  0
    2.0701   -0.2854    0.0000 C   0  0  0  0  0  0  0  0  0  0  0  0
    2.0701   -1.1104    0.0000 C   0  0  0  0  0  0  0  0  0  0  0  0
    1.3556   -1.5229    0.0000 C   0  0  0  0  0  0  0  0  0  0  0  0
   -1.8659   -1.4124    0.0000 C   0  0  0  0  0  0  0  0  0  0  0  0
   -2.6909   -1.4124    0.0000 C   0  0  0  0  0  0  0  0  0  0  0  0
   -3.1034   -2.1269    0.0000 O   0  0  0  0  0  0  0  0  0  0  0  0
   -2.6909   -2.8414    0.0000 C   0  0  0  0  0  0  0  0  0  0  0  0
   -1.8659   -2.8414    0.0000 C   0  0  0  0  0  0  0  0  0  0  0  0
   -3.1034   -3.5558    0.0000 C   0  0  0  0  0  0  0  0  0  0  0  0
   -3.8179   -3.1433    0.0000 F   0  0  0  0  0  0  0  0  0  0  0  0
   -2.3890   -3.9683    0.0000 F   0  0  0  0  0  0  0  0  0  0  0  0
   -3.5159   -4.2703    0.0000 F   0  0  0  0  0  0  0  0  0  0  0  0
  1  2  1  0  0  0  0
  2  3  4  0  0  0  0
  3  4  4  0  0  0  0
  4  5  1  0  0  0  0
  4  6  4  0  0  0  0
  6  7  4  0  0  0  0
  2  7  4  0  0  0  0
  7  8  1  0  0  0  0
  8  9  1  0  0  0  0
  9 10  2  0  0  0  0
  9 11  1  0  0  0  0
 11 12  4  0  0  0  0
 12 13  4  0  0  0  0
 13 14  1  0  0  0  0
 13 15  4  0  0  0  0
 15 16  1  0  0  0  0
 16 17  4  0  0  0  0
 17 18  4  0  0  0  0
 18 19  4  0  0  0  0
 19 20  4  0  0  0  0
 16 20  4  0  0  0  0
 20 21  2  0  0  0  0
 19 22  1  0  0  0  0
 22 23  1  0  0  0  0
 23 24  1  0  0  0  0
 24 25  1  0  0  0  0
 18 25  1  0  0  0  0
 15 26  4  0  0  0  0
 26 27  4  0  0  0  0
 11 27  4  0  0  0  0
 27 28  1  0  0  0  0
 28 29  1  0  0  0  0
 29 30  1  0  0  0  0
 29 31  1  0  0  0  0
 31 32  1  0  0  0  0
 31 33  1  0  0  0  0
 31 34  1  0  0  0  0
M  END
> <IC50(uM)>
0.3

> <Outcome>
1.0

> <BindingDB ID>
1020474

> <BindingDB MonomerID>
490422

> <BindingDB Ligand Name>
N-(1,4-dimethyl-1H-pyrazol-3-yl)-5-fluoro-4-(3-oxo-5,6,7,8-tetrahydro[1,2,4]triazolo[4,3-a]pyridin-2(3H)-yl)-2-{[(2S)-1,1,1-trifluoropropan-2-yl]oxy}benzamide::US10968216, Example 90

> <Curation/DataSource>
US Patent

> <Article DOI>
?

> <PMID>
?

> <Patent Number>
US10968216

> <Authors>
Gradl, SN; Nguyen, D; Eis, K; Gunther, J; Stellfeld, T; Janzer, A; Christian, S; Mueller, T; Sheikh, SE; Zhou, HJ; Zhao, C; Sykes, DB; Ferrara, SJ; Liu, K; Herbert, SA; Merz, C; Niehues, M; Nising, CF; Schafer, M; Zimmermann, K; Knablein, J; Thede, K; Faupel, T

> <Link to Ligand in BindingDB>
http://www.bindingdb.org/bind/chemsearch/marvin/MolStructure.jsp?monomerid=490422

> <Link to Ligand-Target Pair in BindingDB>
http://www.bindingdb.org/jsp/dbsearch/PrimarySearch_ki.jsp?energyterm=kJ/mole&tag=r21&monomerid=490422&enzyme=Dihydroorotate+dehydrogenase&column=ki&startPg=0&Increment=50&submit=Search

> <PubChem CID>
142335854

> <PubChem SID>
447117149

$$$$

  Mrv2115 07222212352D          

 36 38  0  0  0  0            999 V2000
    0.7145   -2.8875    0.0000 C   0  0  0  0  0  0  0  0  0  0  0  0
    0.7145   -3.7125    0.0000 N   0  0  0  0  0  0  0  0  0  0  0  0
    1.4289   -4.1250    0.0000 C   0  0  0  0  0  0  0  0  0  0  0  0
    2.1434   -3.7125    0.0000 O   0  0  0  0  0  0  0  0  0  0  0  0
    1.4289   -4.9500    0.0000 C   0  0  0  0  0  0  0  0  0  0  0  0
    0.7615   -5.4349    0.0000 N   0  0  0  0  0  0  0  0  0  0  0  0
    1.0164   -6.2195    0.0000 N   0  0  0  0  0  0  0  0  0  0  0  0
    0.5315   -6.8870    0.0000 C   0  0  0  0  0  0  0  0  0  0  0  0
    0.8671   -7.6407    0.0000 C   0  0  0  0  0  0  0  0  0  0  0  0
    0.3822   -8.3081    0.0000 C   0  0  0  0  0  0  0  0  0  0  0  0
    0.7177   -9.0618    0.0000 O   0  0  0  0  0  0  0  0  0  0  0  0
    1.5382   -9.1480    0.0000 C   0  0  0  0  0  0  0  0  0  0  0  0
    2.0231   -8.4806    0.0000 C   0  0  0  0  0  0  0  0  0  0  0  0
    1.8738   -9.9017    0.0000 C   0  0  0  0  0  0  0  0  0  0  0  0
    1.1201  -10.2372    0.0000 F   0  0  0  0  0  0  0  0  0  0  0  0
    2.6274   -9.5661    0.0000 F   0  0  0  0  0  0  0  0  0  0  0  0
    2.2093  -10.6554    0.0000 F   0  0  0  0  0  0  0  0  0  0  0  0
   -0.4383   -8.2219    0.0000 C   0  0  0  0  0  0  0  0  0  0  0  0
   -0.9232   -8.8893    0.0000 C   0  0  0  0  0  0  0  0  0  0  0  0
   -1.7437   -8.8031    0.0000 O   0  0  0  0  0  0  0  0  0  0  0  0
   -0.5877   -9.6430    0.0000 N   0  0  0  0  0  0  0  0  0  0  0  0
   -1.0726  -10.3104    0.0000 C   0  0  0  0  0  0  0  0  0  0  0  0
   -0.7371  -11.0641    0.0000 C   0  0  0  0  0  0  0  0  0  0  0  0
    0.0834  -11.1503    0.0000 F   0  0  0  0  0  0  0  0  0  0  0  0
   -1.2220  -11.7315    0.0000 C   0  0  0  0  0  0  0  0  0  0  0  0
   -2.0425  -11.6453    0.0000 C   0  0  0  0  0  0  0  0  0  0  0  0
   -2.3780  -10.8916    0.0000 C   0  0  0  0  0  0  0  0  0  0  0  0
   -1.8931  -10.2242    0.0000 C   0  0  0  0  0  0  0  0  0  0  0  0
   -2.2287   -9.4705    0.0000 F   0  0  0  0  0  0  0  0  0  0  0  0
   -0.7739   -7.4682    0.0000 C   0  0  0  0  0  0  0  0  0  0  0  0
   -0.2890   -6.8007    0.0000 C   0  0  0  0  0  0  0  0  0  0  0  0
   -0.6245   -6.0471    0.0000 F   0  0  0  0  0  0  0  0  0  0  0  0
    1.8414   -6.2195    0.0000 C   0  0  0  0  0  0  0  0  0  0  0  0
    2.3264   -6.8870    0.0000 O   0  0  0  0  0  0  0  0  0  0  0  0
    2.0964   -5.4349    0.0000 N   0  0  0  0  0  0  0  0  0  0  0  0
    2.8810   -5.1800    0.0000 C   0  0  0  0  0  0  0  0  0  0  0  0
  1  2  1  0  0  0  0
  2  3  1  0  0  0  0
  3  4  2  0  0  0  0
  3  5  1  0  0  0  0
  5  6  4  0  0  0  0
  6  7  4  0  0  0  0
  7  8  1  0  0  0  0
  8  9  4  0  0  0  0
  9 10  4  0  0  0  0
 10 11  1  0  0  0  0
 11 12  1  0  0  0  0
 12 13  1  0  0  0  0
 12 14  1  0  0  0  0
 14 15  1  0  0  0  0
 14 16  1  0  0  0  0
 14 17  1  0  0  0  0
 10 18  4  0  0  0  0
 18 19  1  0  0  0  0
 19 20  2  0  0  0  0
 19 21  1  0  0  0  0
 21 22  1  0  0  0  0
 22 23  4  0  0  0  0
 23 24  1  0  0  0  0
 23 25  4  0  0  0  0
 25 26  4  0  0  0  0
 26 27  4  0  0  0  0
 27 28  4  0  0  0  0
 22 28  4  0  0  0  0
 28 29  1  0  0  0  0
 18 30  4  0  0  0  0
 30 31  4  0  0  0  0
  8 31  4  0  0  0  0
 31 32  1  0  0  0  0
  7 33  4  0  0  0  0
 33 34  2  0  0  0  0
 33 35  4  0  0  0  0
  5 35  4  0  0  0  0
 35 36  1  0  0  0  0
M  END
> <IC50(uM)>
0.75

> <Outcome>
1.0

> <BindingDB ID>
1098846; 972692

> <BindingDB MonomerID>
470570

> <BindingDB Ligand Name>
1-(4-[(2,6-difluorophenyl)carbamoyl]-2-fluoro-5-{[(2S)-1,1,1-trifluoropropan-2-yl]oxy}phenyl)-N,4-dimethyl-5-oxo-4,5-dihydro-1H-1,2,4-triazole-3-carboxamide::US10815215, Example 230::US11130745, Example 230; 1-(4-[(2,6-difluorophenyl)carbamoyl]-2-fluoro-5-{[(2S)-1,1,1-trifluoropropan-2-yl]oxy}phenyl)-N,4-dimethyl-5-oxo-4,5-dihydro-1H-1,2,4-triazole-3-carboxamide::US10815215, Example 230

> <Curation/DataSource>
US Patent

> <Article DOI>
?

> <PMID>
?

> <Patent Number>
US11130745; US10815215

> <Authors>
Gradl, SN; Nguyen, D; Eis, K; Gunther, J; Stellfeld, T; Janzer, A; Christian, S; Muller, T; Sheikh, SE; Sykes, DB; Ferrara, SJ; Krober, M; Merz, C; Niehues, M; Schafer, M; Zimmermann, K; Nising, CF; Gradl, SN; Nguyen, D; Eis, K; Gunther, J; Stellfeld, T; Janzer, A; Christian, S; Muller, T; Sheikh, SE; Zhou, HJ; Zhao, C; Sykes, DB; Ferrara, SJ; Liu, K; Krober, M; Merz, C; Niehues, M; Schafer, M; Zimmermann, K; Nising, CF

> <Link to Ligand in BindingDB>
http://www.bindingdb.org/bind/chemsearch/marvin/MolStructure.jsp?monomerid=470570

> <Link to Ligand-Target Pair in BindingDB>
http://www.bindingdb.org/jsp/dbsearch/PrimarySearch_ki.jsp?energyterm=kJ/mole&tag=r21&monomerid=470570&enzyme=Dihydroorotate+dehydrogenase&column=ki&startPg=0&Increment=50&submit=Search

> <PubChem CID>
134469992

> <PubChem SID>
441609746

$$$$

  Mrv2115 07222212352D          

 25 28  0  0  0  0            999 V2000
    2.1434   -2.8875    0.0000 O   0  0  0  0  0  0  0  0  0  0  0  0
    1.4289   -2.4750    0.0000 C   0  0  0  0  0  0  0  0  0  0  0  0
    0.7145   -2.8875    0.0000 O   0  0  0  0  0  0  0  0  0  0  0  0
    1.4289   -1.6500    0.0000 C   0  0  0  0  0  0  0  0  0  0  0  0
    0.7145   -1.2375    0.0000 C   0  0  0  0  0  0  0  0  0  0  0  0
    0.7145   -0.4125    0.0000 C   0  0  0  0  0  0  0  0  0  0  0  0
    0.0000    0.0000    0.0000 C   0  0  0  0  0  0  0  0  0  0  0  0
   -0.7145   -0.4125    0.0000 C   0  0  0  0  0  0  0  0  0  0  0  0
   -1.4289    0.0000    0.0000 C   0  0  0  0  0  0  0  0  0  0  0  0
   -1.4289    0.8250    0.0000 C   0  0  0  0  0  0  0  0  0  0  0  0
   -2.1434    1.2375    0.0000 C   0  0  0  0  0  0  0  0  0  0  0  0
   -2.8579    0.8250    0.0000 C   0  0  0  0  0  0  0  0  0  0  0  0
   -3.5724    1.2375    0.0000 C   0  0  0  0  0  0  0  0  0  0  0  0
   -3.5724    2.0625    0.0000 N   0  0  0  0  0  0  0  0  0  0  0  0
   -2.8579    2.4750    0.0000 C   0  0  0  0  0  0  0  0  0  0  0  0
   -2.1434    2.0625    0.0000 C   0  0  0  0  0  0  0  0  0  0  0  0
   -0.7145    1.2375    0.0000 C   0  0  0  0  0  0  0  0  0  0  0  0
    0.0000    0.8250    0.0000 C   0  0  0  0  0  0  0  0  0  0  0  0
    1.4289    0.0000    0.0000 N   0  0  0  0  0  0  0  0  0  0  0  0
    2.1434   -0.4125    0.0000 C   0  0  0  0  0  0  0  0  0  0  0  0
    2.8579    0.0000    0.0000 C   0  0  0  0  0  0  0  0  0  0  0  0
    3.5724   -0.4125    0.0000 C   0  0  0  0  0  0  0  0  0  0  0  0
    3.5724   -1.2375    0.0000 C   0  0  0  0  0  0  0  0  0  0  0  0
    2.8579   -1.6500    0.0000 C   0  0  0  0  0  0  0  0  0  0  0  0
    2.1434   -1.2375    0.0000 C   0  0  0  0  0  0  0  0  0  0  0  0
  1  2  2  0  0  0  0
  2  3  1  0  0  0  0
  2  4  1  0  0  0  0
  4  5  4  0  0  0  0
  5  6  4  0  0  0  0
  6  7  1  0  0  0  0
  7  8  4  0  0  0  0
  8  9  4  0  0  0  0
  9 10  4  0  0  0  0
 10 11  1  0  0  0  0
 11 12  4  0  0  0  0
 12 13  4  0  0  0  0
 13 14  4  0  0  0  0
 14 15  4  0  0  0  0
 15 16  4  0  0  0  0
 11 16  4  0  0  0  0
 10 17  4  0  0  0  0
 17 18  4  0  0  0  0
  7 18  4  0  0  0  0
  6 19  4  0  0  0  0
 19 20  4  0  0  0  0
 20 21  4  0  0  0  0
 21 22  4  0  0  0  0
 22 23  4  0  0  0  0
 23 24  4  0  0  0  0
 24 25  4  0  0  0  0
  4 25  4  0  0  0  0
 20 25  4  0  0  0  0
M  END
> <IC50(uM)>
7.55

> <Outcome>
0.0

> <BindingDB ID>
51126170

> <BindingDB MonomerID>
50461857

> <BindingDB Ligand Name>
CHEMBL4226212

> <Curation/DataSource>
ChEMBL

> <Article DOI>
10.1021/acs.jmedchem.7b01862

> <PMID>
29727569

> <Patent Number>
?

> <Authors>
Madak, JT; Cuthbertson, CR; Miyata, Y; Tamura, S; Petrunak, EM; Stuckey, JA; Han, Y; He, M; Sun, D; Showalter, HD; Neamati, N

> <Link to Ligand in BindingDB>
http://www.bindingdb.org/bind/chemsearch/marvin/MolStructure.jsp?monomerid=50461857

> <Link to Ligand-Target Pair in BindingDB>
http://www.bindingdb.org/jsp/dbsearch/PrimarySearch_ki.jsp?energyterm=kJ/mole&tag=r21&monomerid=50461857&enzyme=Dihydroorotate+dehydrogenase&column=ki&startPg=0&Increment=50&submit=Search

> <PubChem CID>
145968095

> <PubChem SID>
433929122

$$$$

  Mrv2115 07222212352D          

 26 28  0  0  0  0            999 V2000
   -2.1434   -0.4125    0.0000 C   0  0  0  0  0  0  0  0  0  0  0  0
   -2.1434   -1.2375    0.0000 C   0  0  0  0  0  0  0  0  0  0  0  0
   -2.8579   -1.6500    0.0000 O   0  0  0  0  0  0  0  0  0  0  0  0
   -2.8579   -2.4750    0.0000 C   0  0  0  0  0  0  0  0  0  0  0  0
   -2.1434   -2.8875    0.0000 C   0  0  0  0  0  0  0  0  0  0  0  0
   -2.1434   -3.7125    0.0000 C   0  0  0  0  0  0  0  0  0  0  0  0
   -2.8579   -4.1250    0.0000 C   0  0  0  0  0  0  0  0  0  0  0  0
   -3.5724   -3.7125    0.0000 C   0  0  0  0  0  0  0  0  0  0  0  0
   -4.2868   -4.1250    0.0000 C   0  0  0  0  0  0  0  0  0  0  0  0
   -5.0013   -3.7125    0.0000 C   0  0  0  0  0  0  0  0  0  0  0  0
   -5.7158   -4.1250    0.0000 C   0  0  0  0  0  0  0  0  0  0  0  0
   -5.7158   -4.9500    0.0000 C   0  0  0  0  0  0  0  0  0  0  0  0
   -6.4302   -5.3625    0.0000 N   0  0  0  0  0  0  0  0  0  0  0  0
   -6.4302   -6.1875    0.0000 C   0  0  0  0  0  0  0  0  0  0  0  0
   -5.7158   -6.6000    0.0000 N   0  0  0  0  0  0  0  0  0  0  0  0
   -5.7158   -7.4250    0.0000 C   0  0  0  0  0  0  0  0  0  0  0  0
   -6.4302   -7.8375    0.0000 C   0  0  0  0  0  0  0  0  0  0  0  0
   -7.1447   -7.4250    0.0000 C   0  0  0  0  0  0  0  0  0  0  0  0
   -7.1447   -6.6000    0.0000 C   0  0  0  0  0  0  0  0  0  0  0  0
   -7.8592   -6.1875    0.0000 C   0  0  0  0  0  0  0  0  0  0  0  0
   -7.8592   -5.3625    0.0000 O   0  0  0  0  0  0  0  0  0  0  0  0
   -8.5737   -6.6000    0.0000 O   0  0  0  0  0  0  0  0  0  0  0  0
   -5.0013   -5.3625    0.0000 C   0  0  0  0  0  0  0  0  0  0  0  0
   -5.0013   -6.1875    0.0000 F   0  0  0  0  0  0  0  0  0  0  0  0
   -4.2868   -4.9500    0.0000 C   0  0  0  0  0  0  0  0  0  0  0  0
   -3.5724   -2.8875    0.0000 C   0  0  0  0  0  0  0  0  0  0  0  0
  1  2  1  0  0  0  0
  2  3  1  0  0  0  0
  3  4  1  0  0  0  0
  4  5  4  0  0  0  0
  5  6  4  0  0  0  0
  6  7  4  0  0  0  0
  7  8  4  0  0  0  0
  8  9  1  0  0  0  0
  9 10  4  0  0  0  0
 10 11  4  0  0  0  0
 11 12  4  0  0  0  0
 12 13  1  0  0  0  0
 13 14  1  0  0  0  0
 14 15  4  0  0  0  0
 15 16  4  0  0  0  0
 16 17  4  0  0  0  0
 17 18  4  0  0  0  0
 18 19  4  0  0  0  0
 14 19  4  0  0  0  0
 19 20  1  0  0  0  0
 20 21  2  0  0  0  0
 20 22  1  0  0  0  0
 12 23  4  0  0  0  0
 23 24  1  0  0  0  0
 23 25  4  0  0  0  0
  9 25  4  0  0  0  0
  8 26  4  0  0  0  0
  4 26  4  0  0  0  0
M  END
> <IC50(uM)>
0.2

> <Outcome>
1.0

> <BindingDB ID>
246900; 51186845

> <BindingDB MonomerID>
119807

> <BindingDB Ligand Name>
US8691852, 2

> <Curation/DataSource>
US Patent; ChEMBL

> <Article DOI>
?; 10.1007/s00044-011-9837-4

> <PMID>
?

> <Patent Number>
US8691852; ?

> <Authors>
Castro Palomino Laria, JC; Erra Sola, M; Lozoya Toribio, ME; Navarro Romero, E; n/a

> <Link to Ligand in BindingDB>
http://www.bindingdb.org/bind/chemsearch/marvin/MolStructure.jsp?monomerid=119807

> <Link to Ligand-Target Pair in BindingDB>
http://www.bindingdb.org/jsp/dbsearch/PrimarySearch_ki.jsp?energyterm=kJ/mole&tag=r21&monomerid=119807&enzyme=Dihydroorotate+dehydrogenase&column=ki&startPg=0&Increment=50&submit=Search

> <PubChem CID>
24991946

> <PubChem SID>
220230601

$$$$

  Mrv2115 07222212352D          

 23 24  0  0  0  0            999 V2000
    0.0000   -1.6500    0.0000 C   0  0  0  0  0  0  0  0  0  0  0  0
    0.0000   -2.4750    0.0000 C   0  0  0  0  0  0  0  0  0  0  0  0
    0.7145   -2.8875    0.0000 C   0  0  0  0  0  0  0  0  0  0  0  0
    1.4289   -2.4750    0.0000 C   0  0  0  0  0  0  0  0  0  0  0  0
    1.4289   -1.6500    0.0000 O   0  0  0  0  0  0  0  0  0  0  0  0
    2.1434   -2.8875    0.0000 N   0  0  0  0  0  0  0  0  0  0  0  0
    2.8579   -2.4750    0.0000 C   0  0  0  0  0  0  0  0  0  0  0  0
    2.8579   -1.6500    0.0000 C   0  0  0  0  0  0  0  0  0  0  0  0
    3.5724   -1.2375    0.0000 C   0  0  0  0  0  0  0  0  0  0  0  0
    4.2868   -1.6500    0.0000 C   0  0  0  0  0  0  0  0  0  0  0  0
    4.2868   -2.4750    0.0000 C   0  0  0  0  0  0  0  0  0  0  0  0
    5.0013   -2.8875    0.0000 C   0  0  0  0  0  0  0  0  0  0  0  0
    5.7158   -3.3000    0.0000 F   0  0  0  0  0  0  0  0  0  0  0  0
    5.4138   -2.1730    0.0000 F   0  0  0  0  0  0  0  0  0  0  0  0
    4.5888   -3.6020    0.0000 F   0  0  0  0  0  0  0  0  0  0  0  0
    3.5724   -2.8875    0.0000 C   0  0  0  0  0  0  0  0  0  0  0  0
    0.7145   -3.7125    0.0000 C   0  0  0  0  0  0  0  0  0  0  0  0
    0.0000   -4.1250    0.0000 C   0  0  0  0  0  0  0  0  0  0  0  0
   -0.7145   -3.7125    0.0000 C   0  0  0  0  0  0  0  0  0  0  0  0
   -0.7145   -2.8875    0.0000 C   0  0  0  0  0  0  0  0  0  0  0  0
   -1.4289   -2.4750    0.0000 N   0  3  0  0  0  0  0  0  0  0  0  0
   -2.1434   -2.8875    0.0000 O   0  0  0  0  0  0  0  0  0  0  0  0
   -1.4289   -1.6500    0.0000 O   0  5  0  0  0  0  0  0  0  0  0  0
  1  2  1  0  0  0  0
  2  3  4  0  0  0  0
  3  4  1  0  0  0  0
  4  5  2  0  0  0  0
  4  6  1  0  0  0  0
  6  7  1  0  0  0  0
  7  8  4  0  0  0  0
  8  9  4  0  0  0  0
  9 10  4  0  0  0  0
 10 11  4  0  0  0  0
 11 12  1  0  0  0  0
 12 13  1  0  0  0  0
 12 14  1  0  0  0  0
 12 15  1  0  0  0  0
 11 16  4  0  0  0  0
  7 16  4  0  0  0  0
  3 17  4  0  0  0  0
 17 18  4  0  0  0  0
 18 19  4  0  0  0  0
 19 20  4  0  0  0  0
  2 20  4  0  0  0  0
 20 21  1  0  0  0  0
 21 22  2  0  0  0  0
 21 23  1  0  0  0  0
M  CHG  2  21   1  23  -1
M  END
> <IC50(uM)>
150.0

> <Outcome>
0.0

> <BindingDB ID>
28103

> <BindingDB MonomerID>
15355

> <BindingDB Ligand Name>
2-methyl-3-nitro-N-[3-(trifluoromethyl)phenyl]benzamide::Asinex compound no. 10

> <Curation/DataSource>
Curated from the literature by BindingDB

> <Article DOI>
10.1074/jbc.M501100200

> <PMID>
15795226

> <Patent Number>
?

> <Authors>
Baldwin, J; Michnoff, CH; Malmquist, NA; White, J; Roth, MG; Rathod, PK; Phillips, MA

> <Link to Ligand in BindingDB>
http://www.bindingdb.org/bind/chemsearch/marvin/MolStructure.jsp?monomerid=15355

> <Link to Ligand-Target Pair in BindingDB>
http://www.bindingdb.org/jsp/dbsearch/PrimarySearch_ki.jsp?energyterm=kJ/mole&tag=r21&monomerid=15355&enzyme=Dihydroorotate+Dehydrogenase+%28DHODH%29&column=ki&startPg=0&Increment=50&submit=Search

> <PubChem CID>
773693

> <PubChem SID>
46515655

$$$$

  Mrv2115 07222212352D          

 27 29  0  0  0  0            999 V2000
   -0.7145   -2.8875    0.0000 C   0  0  0  0  0  0  0  0  0  0  0  0
    0.0000   -2.4750    0.0000 N   0  0  0  0  0  0  0  0  0  0  0  0
    0.0000   -1.6500    0.0000 C   0  0  0  0  0  0  0  0  0  0  0  0
   -0.7145   -1.2375    0.0000 O   0  0  0  0  0  0  0  0  0  0  0  0
    0.7145   -1.2375    0.0000 C   0  0  0  0  0  0  0  0  0  0  0  0
    0.7145   -0.4125    0.0000 C   0  0  0  0  0  0  0  0  0  0  0  0
    1.4289    0.0000    0.0000 C   0  0  0  0  0  0  0  0  0  0  0  0
    2.1434   -0.4125    0.0000 C   0  0  0  0  0  0  0  0  0  0  0  0
    2.8579    0.0000    0.0000 C   0  0  0  0  0  0  0  0  0  0  0  0
    3.5724   -0.4125    0.0000 C   0  0  0  0  0  0  0  0  0  0  0  0
    4.2868   -0.0000    0.0000 C   0  0  0  0  0  0  0  0  0  0  0  0
    4.2868    0.8250    0.0000 C   0  0  0  0  0  0  0  0  0  0  0  0
    5.0013    1.2375    0.0000 C   0  0  0  0  0  0  0  0  0  0  0  0
    5.0013    2.0625    0.0000 C   0  0  0  0  0  0  0  0  0  0  0  0
    4.2868    2.4750    0.0000 C   0  0  0  0  0  0  0  0  0  0  0  0
    4.2868    3.3000    0.0000 O   0  0  0  0  0  0  0  0  0  0  0  0
    3.5724    2.0625    0.0000 O   0  0  0  0  0  0  0  0  0  0  0  0
    5.7158    2.4750    0.0000 N   0  0  0  0  0  0  0  0  0  0  0  0
    6.4302    2.0625    0.0000 C   0  0  0  0  0  0  0  0  0  0  0  0
    7.1447    2.4750    0.0000 O   0  0  0  0  0  0  0  0  0  0  0  0
    6.4302    1.2375    0.0000 N   0  0  0  0  0  0  0  0  0  0  0  0
    5.7158    0.8250    0.0000 C   0  0  0  0  0  0  0  0  0  0  0  0
    5.7158   -0.0000    0.0000 O   0  0  0  0  0  0  0  0  0  0  0  0
    3.5724   -1.2375    0.0000 C   0  0  0  0  0  0  0  0  0  0  0  0
    2.8579   -1.6500    0.0000 C   0  0  0  0  0  0  0  0  0  0  0  0
    2.1434   -1.2375    0.0000 C   0  0  0  0  0  0  0  0  0  0  0  0
    1.4289   -1.6500    0.0000 C   0  0  0  0  0  0  0  0  0  0  0  0
  1  2  1  0  0  0  0
  2  3  1  0  0  0  0
  3  4  2  0  0  0  0
  3  5  1  0  0  0  0
  5  6  4  0  0  0  0
  6  7  4  0  0  0  0
  7  8  4  0  0  0  0
  8  9  4  0  0  0  0
  9 10  4  0  0  0  0
 10 11  1  0  0  0  0
 11 12  1  0  0  0  0
 12 13  1  0  0  0  0
 13 14  4  0  0  0  0
 14 15  1  0  0  0  0
 15 16  2  0  0  0  0
 15 17  1  0  0  0  0
 14 18  4  0  0  0  0
 18 19  4  0  0  0  0
 19 20  2  0  0  0  0
 19 21  4  0  0  0  0
 21 22  4  0  0  0  0
 13 22  4  0  0  0  0
 22 23  2  0  0  0  0
 10 24  4  0  0  0  0
 24 25  4  0  0  0  0
 25 26  4  0  0  0  0
  8 26  4  0  0  0  0
 26 27  4  0  0  0  0
  5 27  4  0  0  0  0
M  STY  2   1 DAT   2 DAT
M  SAL   1  1  18
M  SDT   1 MRV_IMPLICIT_H                                        
M  SDD   1     0.6482   -0.4125    DR    ALL  0       0  
M  SED   1 IMPL_H1
M  SAL   2  1  21
M  SDT   2 MRV_IMPLICIT_H                                        
M  SDD   2     0.5304   -0.4125    DR    ALL  0       0  
M  SED   2 IMPL_H1
M  END
> <IC50(uM)>
2.222

> <Outcome>
0.0

> <BindingDB ID>
50555378

> <BindingDB MonomerID>
50211703

> <BindingDB Ligand Name>
CHEMBL3950984

> <Curation/DataSource>
ChEMBL

> <Article DOI>
10.1016/j.bmc.2017.01.009

> <PMID>
28118956

> <Patent Number>
?

> <Authors>
Inaoka, DK; Iida, M; Hashimoto, S; Tabuchi, T; Kuranaga, T; Balogun, EO; Honma, T; Tanaka, A; Harada, S; Nara, T; Kita, K; Inoue, M

> <Link to Ligand in BindingDB>
http://www.bindingdb.org/bind/chemsearch/marvin/MolStructure.jsp?monomerid=50211703

> <Link to Ligand-Target Pair in BindingDB>
http://www.bindingdb.org/jsp/dbsearch/PrimarySearch_ki.jsp?energyterm=kJ/mole&tag=r21&monomerid=50211703&enzyme=Dihydroorotate+dehydrogenase&column=ki&startPg=0&Increment=50&submit=Search

> <PubChem CID>
134147611

> <PubChem SID>
375983046

$$$$

  Mrv2115 07222212352D          

 33 36  0  0  0  0            999 V2000
   -0.6284    2.1599    0.0000 C   0  0  0  0  0  0  0  0  0  0  0  0
   -1.4534    2.1599    0.0000 C   0  0  0  0  0  0  0  0  0  0  0  0
   -1.8659    1.4455    0.0000 C   0  0  0  0  0  0  0  0  0  0  0  0
   -2.6909    1.4455    0.0000 C   0  0  0  0  0  0  0  0  0  0  0  0
   -3.1034    2.1599    0.0000 C   0  0  0  0  0  0  0  0  0  0  0  0
   -3.1034    0.7310    0.0000 O   0  0  0  0  0  0  0  0  0  0  0  0
   -2.6909    0.0165    0.0000 C   0  0  0  0  0  0  0  0  0  0  0  0
   -1.8659    0.0165    0.0000 C   0  0  0  0  0  0  0  0  0  0  0  0
   -1.4534   -0.6979    0.0000 C   0  0  0  0  0  0  0  0  0  0  0  0
   -0.6284   -0.6979    0.0000 N   0  0  0  0  0  0  0  0  0  0  0  0
   -0.1435   -1.3654    0.0000 N   0  0  0  0  0  0  0  0  0  0  0  0
    0.6411   -1.1104    0.0000 C   0  0  0  0  0  0  0  0  0  0  0  0
    0.6411   -0.2854    0.0000 N   0  0  0  0  0  0  0  0  0  0  0  0
   -0.1435   -0.0305    0.0000 C   0  0  0  0  0  0  0  0  0  0  0  0
   -0.3984    0.7541    0.0000 O   0  0  0  0  0  0  0  0  0  0  0  0
    1.3556    0.1271    0.0000 C   0  0  0  0  0  0  0  0  0  0  0  0
    2.0701   -0.2854    0.0000 C   0  0  0  0  0  0  0  0  0  0  0  0
    2.0701   -1.1104    0.0000 C   0  0  0  0  0  0  0  0  0  0  0  0
    1.3556   -1.5229    0.0000 C   0  0  0  0  0  0  0  0  0  0  0  0
   -1.8659   -1.4124    0.0000 C   0  0  0  0  0  0  0  0  0  0  0  0
   -1.4534   -2.1269    0.0000 F   0  0  0  0  0  0  0  0  0  0  0  0
   -2.6909   -1.4124    0.0000 C   0  0  0  0  0  0  0  0  0  0  0  0
   -3.1034   -0.6979    0.0000 C   0  0  0  0  0  0  0  0  0  0  0  0
   -3.9284   -0.6979    0.0000 C   0  0  0  0  0  0  0  0  0  0  0  0
   -4.3409    0.0165    0.0000 O   0  0  0  0  0  0  0  0  0  0  0  0
   -4.3409   -1.4124    0.0000 N   0  0  0  0  0  0  0  0  0  0  0  0
   -3.9284   -2.1269    0.0000 C   0  0  0  0  0  0  0  0  0  0  0  0
   -3.1034   -2.1269    0.0000 C   0  0  0  0  0  0  0  0  0  0  0  0
   -2.6909   -2.8414    0.0000 C   0  0  0  0  0  0  0  0  0  0  0  0
   -3.1034   -3.5558    0.0000 C   0  0  0  0  0  0  0  0  0  0  0  0
   -3.9284   -3.5558    0.0000 C   0  0  0  0  0  0  0  0  0  0  0  0
   -4.3409   -2.8414    0.0000 C   0  0  0  0  0  0  0  0  0  0  0  0
   -5.1659   -2.8414    0.0000 F   0  0  0  0  0  0  0  0  0  0  0  0
  1  2  1  0  0  0  0
  2  3  1  0  0  0  0
  3  4  1  0  0  0  0
  4  5  1  0  0  0  0
  4  6  1  0  0  0  0
  6  7  1  0  0  0  0
  7  8  4  0  0  0  0
  8  9  4  0  0  0  0
  9 10  1  0  0  0  0
 10 11  4  0  0  0  0
 11 12  4  0  0  0  0
 12 13  4  0  0  0  0
 13 14  4  0  0  0  0
 10 14  4  0  0  0  0
 14 15  2  0  0  0  0
 13 16  1  0  0  0  0
 16 17  1  0  0  0  0
 17 18  1  0  0  0  0
 18 19  1  0  0  0  0
 12 19  1  0  0  0  0
  9 20  4  0  0  0  0
 20 21  1  0  0  0  0
 20 22  4  0  0  0  0
 22 23  4  0  0  0  0
  7 23  4  0  0  0  0
 23 24  1  0  0  0  0
 24 25  2  0  0  0  0
 24 26  1  0  0  0  0
 26 27  1  0  0  0  0
 27 28  4  0  0  0  0
 28 29  4  0  0  0  0
 29 30  4  0  0  0  0
 30 31  4  0  0  0  0
 31 32  4  0  0  0  0
 27 32  4  0  0  0  0
 32 33  1  0  0  0  0
M  END
> <IC50(uM)>
0.124

> <Outcome>
1.0

> <BindingDB ID>
1020376; 1020375

> <BindingDB MonomerID>
490334

> <BindingDB Ligand Name>
5-fluoro-N-(2-fluorophenyl)-4-(3-oxo-5,6,7,8-tetrahydro[1,2,4]triazolo[4,3-a]pyridin-2(3H)-yl)-2-[(2S)-pentan-2-yloxy]benzamide::US10968216, Example 2

> <Curation/DataSource>
US Patent

> <Article DOI>
?

> <PMID>
?

> <Patent Number>
US10968216

> <Authors>
Gradl, SN; Nguyen, D; Eis, K; Gunther, J; Stellfeld, T; Janzer, A; Christian, S; Mueller, T; Sheikh, SE; Zhou, HJ; Zhao, C; Sykes, DB; Ferrara, SJ; Liu, K; Herbert, SA; Merz, C; Niehues, M; Nising, CF; Schafer, M; Zimmermann, K; Knablein, J; Thede, K; Faupel, T

> <Link to Ligand in BindingDB>
http://www.bindingdb.org/bind/chemsearch/marvin/MolStructure.jsp?monomerid=490334

> <Link to Ligand-Target Pair in BindingDB>
http://www.bindingdb.org/jsp/dbsearch/PrimarySearch_ki.jsp?energyterm=kJ/mole&tag=r21&monomerid=490334&enzyme=Dihydroorotate+dehydrogenase&column=ki&startPg=0&Increment=50&submit=Search

> <PubChem CID>
134474087

> <PubChem SID>
447117061

$$$$

  Mrv2115 07222212352D          

 23 25  0  0  0  0            999 V2000
    0.7145   -3.7125    0.0000 O   0  0  0  0  0  0  0  0  0  0  0  0
   -0.0000   -4.1250    0.0000 C   0  0  0  0  0  0  0  0  0  0  0  0
   -0.0000   -4.9500    0.0000 O   0  0  0  0  0  0  0  0  0  0  0  0
   -0.7145   -3.7125    0.0000 C   0  0  0  0  0  0  0  0  0  0  0  0
   -1.4289   -4.1250    0.0000 N   0  0  0  0  0  0  0  0  0  0  0  0
   -2.1434   -3.7125    0.0000 C   0  0  0  0  0  0  0  0  0  0  0  0
   -2.8579   -4.1250    0.0000 O   0  0  0  0  0  0  0  0  0  0  0  0
   -2.1434   -2.8875    0.0000 N   0  0  0  0  0  0  0  0  0  0  0  0
   -1.4289   -2.4750    0.0000 C   0  0  0  0  0  0  0  0  0  0  0  0
   -1.4289   -1.6500    0.0000 O   0  0  0  0  0  0  0  0  0  0  0  0
   -0.7145   -2.8875    0.0000 C   0  0  0  0  0  0  0  0  0  0  0  0
    0.0000   -2.4750    0.0000 C   0  0  0  0  0  0  0  0  0  0  0  0
    0.0000   -1.6500    0.0000 C   0  0  0  0  0  0  0  0  0  0  0  0
    0.7145   -1.2375    0.0000 C   0  0  0  0  0  0  0  0  0  0  0  0
    0.7145   -0.4125    0.0000 C   0  0  0  0  0  0  0  0  0  0  0  0
    1.4289    0.0000    0.0000 C   0  0  0  0  0  0  0  0  0  0  0  0
    2.1434   -0.4125    0.0000 C   0  0  0  0  0  0  0  0  0  0  0  0
    2.8579    0.0000    0.0000 C   0  0  0  0  0  0  0  0  0  0  0  0
    3.5724   -0.4125    0.0000 C   0  0  0  0  0  0  0  0  0  0  0  0
    3.5724   -1.2375    0.0000 C   0  0  0  0  0  0  0  0  0  0  0  0
    2.8579   -1.6500    0.0000 C   0  0  0  0  0  0  0  0  0  0  0  0
    2.1434   -1.2375    0.0000 C   0  0  0  0  0  0  0  0  0  0  0  0
    1.4289   -1.6500    0.0000 C   0  0  0  0  0  0  0  0  0  0  0  0
  1  2  2  0  0  0  0
  2  3  1  0  0  0  0
  2  4  1  0  0  0  0
  4  5  4  0  0  0  0
  5  6  4  0  0  0  0
  6  7  2  0  0  0  0
  6  8  4  0  0  0  0
  8  9  4  0  0  0  0
  9 10  2  0  0  0  0
  9 11  4  0  0  0  0
  4 11  4  0  0  0  0
 11 12  1  0  0  0  0
 12 13  1  0  0  0  0
 13 14  1  0  0  0  0
 14 15  4  0  0  0  0
 15 16  4  0  0  0  0
 16 17  4  0  0  0  0
 17 18  4  0  0  0  0
 18 19  4  0  0  0  0
 19 20  4  0  0  0  0
 20 21  4  0  0  0  0
 21 22  4  0  0  0  0
 17 22  4  0  0  0  0
 22 23  4  0  0  0  0
 14 23  4  0  0  0  0
M  STY  2   1 DAT   2 DAT
M  SAL   1  1   5
M  SDT   1 MRV_IMPLICIT_H                                        
M  SDD   1     0.6482   -0.4125    DR    ALL  0       0  
M  SED   1 IMPL_H1
M  SAL   2  1   8
M  SDT   2 MRV_IMPLICIT_H                                        
M  SDD   2     0.5304   -0.4125    DR    ALL  0       0  
M  SED   2 IMPL_H1
M  END
> <IC50(uM)>
0.046

> <Outcome>
1.0

> <BindingDB ID>
50555388

> <BindingDB MonomerID>
50211939

> <BindingDB Ligand Name>
CHEMBL3984245

> <Curation/DataSource>
ChEMBL

> <Article DOI>
10.1016/j.bmc.2017.01.009

> <PMID>
28118956

> <Patent Number>
?

> <Authors>
Inaoka, DK; Iida, M; Hashimoto, S; Tabuchi, T; Kuranaga, T; Balogun, EO; Honma, T; Tanaka, A; Harada, S; Nara, T; Kita, K; Inoue, M

> <Link to Ligand in BindingDB>
http://www.bindingdb.org/bind/chemsearch/marvin/MolStructure.jsp?monomerid=50211939

> <Link to Ligand-Target Pair in BindingDB>
http://www.bindingdb.org/jsp/dbsearch/PrimarySearch_ki.jsp?energyterm=kJ/mole&tag=r21&monomerid=50211939&enzyme=Dihydroorotate+dehydrogenase&column=ki&startPg=0&Increment=50&submit=Search

> <PubChem CID>
134157478

> <PubChem SID>
104088017

$$$$

  Mrv2115 07222212352D          

 32 35  0  0  0  0            999 V2000
   -2.6111    0.8587    0.0000 C   0  0  0  0  0  0  0  0  0  0  0  0
   -2.1262    0.1913    0.0000 C   0  0  0  0  0  0  0  0  0  0  0  0
   -1.3057    0.2775    0.0000 N   0  0  0  0  0  0  0  0  0  0  0  0
   -0.8932    0.9920    0.0000 C   0  0  0  0  0  0  0  0  0  0  0  0
   -1.2288    1.7457    0.0000 C   0  0  0  0  0  0  0  0  0  0  0  0
   -0.7438    2.4131    0.0000 O   0  0  0  0  0  0  0  0  0  0  0  0
   -0.0862    0.8205    0.0000 N   0  0  0  0  0  0  0  0  0  0  0  0
    0.0000   -0.0000    0.0000 N   0  0  0  0  0  0  0  0  0  0  0  0
    0.7145   -0.4125    0.0000 C   0  0  0  0  0  0  0  0  0  0  0  0
    1.4289    0.0000    0.0000 C   0  0  0  0  0  0  0  0  0  0  0  0
    2.1434   -0.4125    0.0000 C   0  0  0  0  0  0  0  0  0  0  0  0
    2.8579    0.0000    0.0000 C   0  0  0  0  0  0  0  0  0  0  0  0
    2.8579    0.8250    0.0000 C   0  0  0  0  0  0  0  0  0  0  0  0
    3.5724    1.2375    0.0000 C   0  0  0  0  0  0  0  0  0  0  0  0
    2.1434    1.2375    0.0000 C   0  0  0  0  0  0  0  0  0  0  0  0
    3.5724   -0.4125    0.0000 C   0  0  0  0  0  0  0  0  0  0  0  0
    3.5724   -1.2375    0.0000 C   0  0  0  0  0  0  0  0  0  0  0  0
    4.2868   -1.6500    0.0000 C   0  0  0  0  0  0  0  0  0  0  0  0
    5.0013   -1.2375    0.0000 C   0  0  0  0  0  0  0  0  0  0  0  0
    5.7158   -1.6500    0.0000 C   0  0  0  0  0  0  0  0  0  0  0  0
    5.7158   -2.4750    0.0000 C   0  0  0  0  0  0  0  0  0  0  0  0
    5.0013   -2.8875    0.0000 C   0  0  0  0  0  0  0  0  0  0  0  0
    4.2868   -2.4750    0.0000 C   0  0  0  0  0  0  0  0  0  0  0  0
    3.5724   -2.8875    0.0000 C   0  0  0  0  0  0  0  0  0  0  0  0
    2.8579   -1.6500    0.0000 C   0  0  0  0  0  0  0  0  0  0  0  0
    2.8579   -2.4750    0.0000 O   0  0  0  0  0  0  0  0  0  0  0  0
    2.1434   -1.2375    0.0000 N   0  0  0  0  0  0  0  0  0  0  0  0
    1.4289   -1.6500    0.0000 C   0  0  0  0  0  0  0  0  0  0  0  0
    0.7145   -1.2375    0.0000 C   0  0  0  0  0  0  0  0  0  0  0  0
    0.0000   -1.6500    0.0000 F   0  0  0  0  0  0  0  0  0  0  0  0
   -0.7537   -0.3356    0.0000 C   0  0  0  0  0  0  0  0  0  0  0  0
   -0.9252   -1.1425    0.0000 O   0  0  0  0  0  0  0  0  0  0  0  0
  1  2  1  0  0  0  0
  2  3  1  0  0  0  0
  3  4  4  0  0  0  0
  4  5  1  0  0  0  0
  5  6  1  0  0  0  0
  4  7  4  0  0  0  0
  7  8  4  0  0  0  0
  8  9  1  0  0  0  0
  9 10  4  0  0  0  0
 10 11  4  0  0  0  0
 11 12  4  0  0  0  0
 12 13  1  0  0  0  0
 13 14  1  0  0  0  0
 13 15  1  0  0  0  0
 12 16  4  0  0  0  0
 16 17  4  0  0  0  0
 17 18  1  0  0  0  0
 18 19  4  0  0  0  0
 19 20  4  0  0  0  0
 20 21  4  0  0  0  0
 21 22  4  0  0  0  0
 22 23  4  0  0  0  0
 18 23  4  0  0  0  0
 23 24  1  0  0  0  0
 17 25  4  0  0  0  0
 25 26  2  0  0  0  0
 25 27  4  0  0  0  0
 11 27  4  0  0  0  0
 27 28  4  0  0  0  0
 28 29  4  0  0  0  0
  9 29  4  0  0  0  0
 29 30  1  0  0  0  0
  8 31  4  0  0  0  0
  3 31  4  0  0  0  0
 31 32  2  0  0  0  0
M  END
> <IC50(uM)>
0.00133

> <Outcome>
1.0

> <BindingDB ID>
1121399

> <BindingDB MonomerID>
530465

> <BindingDB Ligand Name>
8-(4-Ethyl-3-(hydroxymethyl)-5-oxo-4,5-dihydro-1H-1,2,4-triazol-1-yl)-7-fluoro-1- isopropyl-3-(o-tolyl)-4H-quinolizin-4-one.::WO2022070071, Example 3

> <Curation/DataSource>
Curated from the literature by BindingDB

> <Article DOI>
?

> <PMID>
WO2022070071

> <Patent Number>
?

> <Authors>
Lindsey, D; Scott, K

> <Link to Ligand in BindingDB>
http://www.bindingdb.org/bind/chemsearch/marvin/MolStructure.jsp?monomerid=530465

> <Link to Ligand-Target Pair in BindingDB>
http://www.bindingdb.org/jsp/dbsearch/PrimarySearch_ki.jsp?energyterm=kJ/mole&tag=r21&monomerid=530465&enzyme=Dihydroorotate+dehydrogenase&column=ki&startPg=0&Increment=50&submit=Search

> <PubChem CID>
?

> <PubChem SID>
?

$$$$

  Mrv2115 07222212352D          

 38 41  0  0  0  0            999 V2000
   -0.7145   -3.7125    0.0000 C   0  0  0  0  0  0  0  0  0  0  0  0
    0.0000   -4.1250    0.0000 C   0  0  0  0  0  0  0  0  0  0  0  0
    0.0000   -4.9500    0.0000 C   0  0  0  0  0  0  0  0  0  0  0  0
    0.6674   -5.4349    0.0000 N   0  0  0  0  0  0  0  0  0  0  0  0
    0.4125   -6.2195    0.0000 N   0  0  0  0  0  0  0  0  0  0  0  0
    0.8974   -6.8870    0.0000 C   0  0  0  0  0  0  0  0  0  0  0  0
    1.7179   -6.8007    0.0000 C   0  0  0  0  0  0  0  0  0  0  0  0
    2.2028   -7.4682    0.0000 C   0  0  0  0  0  0  0  0  0  0  0  0
    3.0233   -7.3820    0.0000 O   0  0  0  0  0  0  0  0  0  0  0  0
    3.3589   -6.6283    0.0000 C   0  0  0  0  0  0  0  0  0  0  0  0
    2.8739   -5.9608    0.0000 C   0  0  0  0  0  0  0  0  0  0  0  0
    4.1793   -6.5420    0.0000 C   0  0  0  0  0  0  0  0  0  0  0  0
    4.5149   -5.7884    0.0000 C   0  0  0  0  0  0  0  0  0  0  0  0
    5.3354   -5.7021    0.0000 C   0  0  0  0  0  0  0  0  0  0  0  0
    5.8203   -6.3696    0.0000 C   0  0  0  0  0  0  0  0  0  0  0  0
    5.4847   -7.1232    0.0000 C   0  0  0  0  0  0  0  0  0  0  0  0
    4.6643   -7.2095    0.0000 C   0  0  0  0  0  0  0  0  0  0  0  0
    1.8673   -8.2219    0.0000 C   0  0  0  0  0  0  0  0  0  0  0  0
    2.3522   -8.8893    0.0000 C   0  0  0  0  0  0  0  0  0  0  0  0
    3.1727   -8.8031    0.0000 O   0  0  0  0  0  0  0  0  0  0  0  0
    2.0166   -9.6430    0.0000 N   0  0  0  0  0  0  0  0  0  0  0  0
    2.5016  -10.3104    0.0000 C   0  0  0  0  0  0  0  0  0  0  0  0
    3.3220  -10.2242    0.0000 C   0  0  0  0  0  0  0  0  0  0  0  0
    3.8070  -10.8916    0.0000 C   0  0  0  0  0  0  0  0  0  0  0  0
    3.4714  -11.6453    0.0000 C   0  0  0  0  0  0  0  0  0  0  0  0
    2.6509  -11.7315    0.0000 C   0  0  0  0  0  0  0  0  0  0  0  0
    2.3154  -12.4852    0.0000 S   0  0  0  0  0  0  0  0  0  0  0  0
    1.9798  -13.2389    0.0000 C   0  0  0  0  0  0  0  0  0  0  0  0
    1.5617  -12.1496    0.0000 O   0  0  0  0  0  0  0  0  0  0  0  0
    3.0690  -12.8208    0.0000 O   0  0  0  0  0  0  0  0  0  0  0  0
    2.1660  -11.0641    0.0000 C   0  0  0  0  0  0  0  0  0  0  0  0
    1.0468   -8.3081    0.0000 C   0  0  0  0  0  0  0  0  0  0  0  0
    0.5619   -7.6407    0.0000 C   0  0  0  0  0  0  0  0  0  0  0  0
   -0.2586   -7.7269    0.0000 F   0  0  0  0  0  0  0  0  0  0  0  0
   -0.4125   -6.2195    0.0000 C   0  0  0  0  0  0  0  0  0  0  0  0
   -0.8974   -6.8870    0.0000 O   0  0  0  0  0  0  0  0  0  0  0  0
   -0.6674   -5.4349    0.0000 N   0  0  0  0  0  0  0  0  0  0  0  0
   -1.4521   -5.1800    0.0000 C   0  0  0  0  0  0  0  0  0  0  0  0
  1  2  1  0  0  0  0
  2  3  1  0  0  0  0
  3  4  4  0  0  0  0
  4  5  4  0  0  0  0
  5  6  1  0  0  0  0
  6  7  4  0  0  0  0
  7  8  4  0  0  0  0
  8  9  1  0  0  0  0
  9 10  1  0  0  0  0
 10 11  1  0  0  0  0
 10 12  1  0  0  0  0
 12 13  1  0  0  0  0
 13 14  1  0  0  0  0
 14 15  1  0  0  0  0
 15 16  1  0  0  0  0
 16 17  1  0  0  0  0
 12 17  1  0  0  0  0
  8 18  4  0  0  0  0
 18 19  1  0  0  0  0
 19 20  2  0  0  0  0
 19 21  1  0  0  0  0
 21 22  1  0  0  0  0
 22 23  4  0  0  0  0
 23 24  4  0  0  0  0
 24 25  4  0  0  0  0
 25 26  4  0  0  0  0
 26 27  1  0  0  0  0
 27 28  1  0  0  0  0
 27 29  2  0  0  0  0
 27 30  2  0  0  0  0
 26 31  4  0  0  0  0
 22 31  4  0  0  0  0
 18 32  4  0  0  0  0
 32 33  4  0  0  0  0
  6 33  4  0  0  0  0
 33 34  1  0  0  0  0
  5 35  4  0  0  0  0
 35 36  2  0  0  0  0
 35 37  4  0  0  0  0
  3 37  4  0  0  0  0
 37 38  1  0  0  0  0
M  END
> <IC50(uM)>
0.85

> <Outcome>
1.0

> <BindingDB ID>
972661; 1098815

> <BindingDB MonomerID>
470539

> <BindingDB Ligand Name>
2-[(1S)-1-cyclohexylethoxy]-4-(3-ethyl-4-methyl-5-oxo-4,5-dihydro-1H-1,2,4-triazol-1-yl)-5-fluoro-N-[3-(methanesulfonyl)phenyl]benzamide::US10815215, Example 199; 2-[(1S)-1-cyclohexylethoxy]-4-(3-ethyl-4-methyl-5-oxo-4,5-dihydro-1H-1,2,4-triazol-1-yl)-5-fluoro-N-[3-(methanesulfonyl)phenyl]benzamide::US10815215, Example 199::US11130745, Example 199

> <Curation/DataSource>
US Patent

> <Article DOI>
?

> <PMID>
?

> <Patent Number>
US10815215; US11130745

> <Authors>
Gradl, SN; Nguyen, D; Eis, K; Gunther, J; Stellfeld, T; Janzer, A; Christian, S; Muller, T; Sheikh, SE; Zhou, HJ; Zhao, C; Sykes, DB; Ferrara, SJ; Liu, K; Krober, M; Merz, C; Niehues, M; Schafer, M; Zimmermann, K; Nising, CF; Gradl, SN; Nguyen, D; Eis, K; Gunther, J; Stellfeld, T; Janzer, A; Christian, S; Muller, T; Sheikh, SE; Sykes, DB; Ferrara, SJ; Krober, M; Merz, C; Niehues, M; Schafer, M; Zimmermann, K; Nising, CF

> <Link to Ligand in BindingDB>
http://www.bindingdb.org/bind/chemsearch/marvin/MolStructure.jsp?monomerid=470539

> <Link to Ligand-Target Pair in BindingDB>
http://www.bindingdb.org/jsp/dbsearch/PrimarySearch_ki.jsp?energyterm=kJ/mole&tag=r21&monomerid=470539&enzyme=Dihydroorotate+dehydrogenase&column=ki&startPg=0&Increment=50&submit=Search

> <PubChem CID>
134469933

> <PubChem SID>
441609715

$$$$

  Mrv2115 07222212352D          

 27 29  0  0  0  0            999 V2000
    2.1434   -2.8875    0.0000 C   0  0  0  0  0  0  0  0  0  0  0  0
    2.1434   -3.7125    0.0000 C   0  0  0  0  0  0  0  0  0  0  0  0
    1.4289   -4.1250    0.0000 C   0  0  0  0  0  0  0  0  0  0  0  0
    1.4289   -4.9500    0.0000 C   0  0  0  0  0  0  0  0  0  0  0  0
    2.1434   -5.3625    0.0000 C   0  0  0  0  0  0  0  0  0  0  0  0
    2.1434   -6.1875    0.0000 N   0  0  0  0  0  0  0  0  0  0  0  0
    1.4289   -6.6000    0.0000 C   0  0  0  0  0  0  0  0  0  0  0  0
    1.4289   -7.4250    0.0000 C   0  0  0  0  0  0  0  0  0  0  0  0
    0.7145   -7.8375    0.0000 N   0  0  0  0  0  0  0  0  0  0  0  0
    0.0000   -7.4250    0.0000 C   0  0  0  0  0  0  0  0  0  0  0  0
   -0.7145   -7.8375    0.0000 C   0  0  0  0  0  0  0  0  0  0  0  0
   -0.7145   -8.6625    0.0000 C   0  0  0  0  0  0  0  0  0  0  0  0
   -1.4289   -9.0750    0.0000 C   0  0  0  0  0  0  0  0  0  0  0  0
   -2.1434   -8.6625    0.0000 C   0  0  0  0  0  0  0  0  0  0  0  0
   -2.1434   -7.8375    0.0000 C   0  0  0  0  0  0  0  0  0  0  0  0
   -2.8579   -7.4250    0.0000 C   0  0  0  0  0  0  0  0  0  0  0  0
   -3.5724   -7.8375    0.0000 N   0  0  0  0  0  0  0  0  0  0  0  0
   -2.8579   -6.6000    0.0000 O   0  0  0  0  0  0  0  0  0  0  0  0
   -1.4289   -7.4250    0.0000 C   0  0  0  0  0  0  0  0  0  0  0  0
    0.0000   -6.6000    0.0000 C   0  0  0  0  0  0  0  0  0  0  0  0
   -0.7145   -6.1875    0.0000 C   0  0  0  0  0  0  0  0  0  0  0  0
    0.7145   -6.1875    0.0000 C   0  0  0  0  0  0  0  0  0  0  0  0
    2.8579   -4.9500    0.0000 C   0  0  0  0  0  0  0  0  0  0  0  0
    3.5724   -5.3625    0.0000 C   0  0  0  0  0  0  0  0  0  0  0  0
    4.2868   -4.9500    0.0000 O   0  0  0  0  0  0  0  0  0  0  0  0
    3.5724   -6.1875    0.0000 O   0  0  0  0  0  0  0  0  0  0  0  0
    2.8579   -4.1250    0.0000 C   0  0  0  0  0  0  0  0  0  0  0  0
  1  2  1  0  0  0  0
  2  3  4  0  0  0  0
  3  4  4  0  0  0  0
  4  5  4  0  0  0  0
  5  6  1  0  0  0  0
  6  7  1  0  0  0  0
  7  8  4  0  0  0  0
  8  9  4  0  0  0  0
  9 10  4  0  0  0  0
 10 11  1  0  0  0  0
 11 12  4  0  0  0  0
 12 13  4  0  0  0  0
 13 14  4  0  0  0  0
 14 15  4  0  0  0  0
 15 16  1  0  0  0  0
 16 17  1  0  0  0  0
 16 18  2  0  0  0  0
 15 19  4  0  0  0  0
 11 19  4  0  0  0  0
 10 20  4  0  0  0  0
 20 21  1  0  0  0  0
 20 22  4  0  0  0  0
  7 22  4  0  0  0  0
  5 23  4  0  0  0  0
 23 24  1  0  0  0  0
 24 25  2  0  0  0  0
 24 26  1  0  0  0  0
 23 27  4  0  0  0  0
  2 27  4  0  0  0  0
M  END
> <IC50(uM)>
0.19

> <Outcome>
1.0

> <BindingDB ID>
220001

> <BindingDB MonomerID>
102471

> <BindingDB Ligand Name>
US8536165, 65

> <Curation/DataSource>
US Patent

> <Article DOI>
?

> <PMID>
?

> <Patent Number>
US8536165

> <Authors>
Castro Palomino Laria, JC; Terricabras Belart, E; Erra Sola, M; Navarro Romero, E; Fonquerna Pou, S; Cardus Figueras, A; Lozoya Toribio, ME

> <Link to Ligand in BindingDB>
http://www.bindingdb.org/bind/chemsearch/marvin/MolStructure.jsp?monomerid=102471

> <Link to Ligand-Target Pair in BindingDB>
http://www.bindingdb.org/jsp/dbsearch/PrimarySearch_ki.jsp?energyterm=kJ/mole&tag=r21&monomerid=102471&enzyme=Dihydroorotate+dehydrogenase&column=ki&startPg=0&Increment=50&submit=Search

> <PubChem CID>
46847895

> <PubChem SID>
172097762

$$$$

  Mrv2115 07222212352D          

 26 28  0  0  0  0            999 V2000
    2.1434   -2.8875    0.0000 C   0  0  0  0  0  0  0  0  0  0  0  0
    2.1434   -3.7125    0.0000 C   0  0  0  0  0  0  0  0  0  0  0  0
    1.4289   -4.1250    0.0000 C   0  0  0  0  0  0  0  0  0  0  0  0
    1.4289   -4.9500    0.0000 C   0  0  0  0  0  0  0  0  0  0  0  0
    2.1434   -5.3625    0.0000 C   0  0  0  0  0  0  0  0  0  0  0  0
    2.1434   -6.1875    0.0000 N   0  0  0  0  0  0  0  0  0  0  0  0
    1.4289   -6.6000    0.0000 C   0  0  0  0  0  0  0  0  0  0  0  0
    1.4289   -7.4250    0.0000 C   0  0  0  0  0  0  0  0  0  0  0  0
    0.7145   -7.8375    0.0000 C   0  0  0  0  0  0  0  0  0  0  0  0
    0.0000   -7.4250    0.0000 C   0  0  0  0  0  0  0  0  0  0  0  0
   -0.7145   -7.8375    0.0000 C   0  0  0  0  0  0  0  0  0  0  0  0
   -0.7145   -8.6625    0.0000 C   0  0  0  0  0  0  0  0  0  0  0  0
    0.0000   -9.0750    0.0000 F   0  0  0  0  0  0  0  0  0  0  0  0
   -1.4289   -9.0750    0.0000 C   0  0  0  0  0  0  0  0  0  0  0  0
   -2.1434   -8.6625    0.0000 C   0  0  0  0  0  0  0  0  0  0  0  0
   -2.1434   -7.8375    0.0000 C   0  0  0  0  0  0  0  0  0  0  0  0
   -2.8579   -7.4250    0.0000 F   0  0  0  0  0  0  0  0  0  0  0  0
   -1.4289   -7.4250    0.0000 C   0  0  0  0  0  0  0  0  0  0  0  0
   -1.4289   -6.6000    0.0000 F   0  0  0  0  0  0  0  0  0  0  0  0
    0.0000   -6.6000    0.0000 N   0  0  0  0  0  0  0  0  0  0  0  0
    0.7145   -6.1875    0.0000 C   0  0  0  0  0  0  0  0  0  0  0  0
    2.8579   -4.9500    0.0000 C   0  0  0  0  0  0  0  0  0  0  0  0
    3.5724   -5.3625    0.0000 C   0  0  0  0  0  0  0  0  0  0  0  0
    4.2868   -4.9500    0.0000 O   0  0  0  0  0  0  0  0  0  0  0  0
    3.5724   -6.1875    0.0000 O   0  0  0  0  0  0  0  0  0  0  0  0
    2.8579   -4.1250    0.0000 C   0  0  0  0  0  0  0  0  0  0  0  0
  1  2  1  0  0  0  0
  2  3  4  0  0  0  0
  3  4  4  0  0  0  0
  4  5  4  0  0  0  0
  5  6  1  0  0  0  0
  6  7  1  0  0  0  0
  7  8  4  0  0  0  0
  8  9  4  0  0  0  0
  9 10  4  0  0  0  0
 10 11  1  0  0  0  0
 11 12  4  0  0  0  0
 12 13  1  0  0  0  0
 12 14  4  0  0  0  0
 14 15  4  0  0  0  0
 15 16  4  0  0  0  0
 16 17  1  0  0  0  0
 16 18  4  0  0  0  0
 11 18  4  0  0  0  0
 18 19  1  0  0  0  0
 10 20  4  0  0  0  0
 20 21  4  0  0  0  0
  7 21  4  0  0  0  0
  5 22  4  0  0  0  0
 22 23  1  0  0  0  0
 23 24  2  0  0  0  0
 23 25  1  0  0  0  0
 22 26  4  0  0  0  0
  2 26  4  0  0  0  0
M  END
> <IC50(uM)>
0.077

> <Outcome>
1.0

> <BindingDB ID>
220028

> <BindingDB MonomerID>
102499

> <BindingDB Ligand Name>
US8536165, 113

> <Curation/DataSource>
US Patent

> <Article DOI>
?

> <PMID>
?

> <Patent Number>
US8536165

> <Authors>
Castro Palomino Laria, JC; Terricabras Belart, E; Erra Sola, M; Navarro Romero, E; Fonquerna Pou, S; Cardus Figueras, A; Lozoya Toribio, ME

> <Link to Ligand in BindingDB>
http://www.bindingdb.org/bind/chemsearch/marvin/MolStructure.jsp?monomerid=102499

> <Link to Ligand-Target Pair in BindingDB>
http://www.bindingdb.org/jsp/dbsearch/PrimarySearch_ki.jsp?energyterm=kJ/mole&tag=r21&monomerid=102499&enzyme=Dihydroorotate+dehydrogenase&column=ki&startPg=0&Increment=50&submit=Search

> <PubChem CID>
25188662

> <PubChem SID>
172097790

$$$$

  Mrv2115 07222212352D          

 19 21  0  0  0  0            999 V2000
   -0.2934    4.1250    0.0000 C   0  0  0  0  0  0  0  0  0  0  0  0
    0.4210    3.7125    0.0000 C   0  0  0  0  0  0  0  0  0  0  0  0
    1.1355    3.3000    0.0000 C   0  0  0  0  0  0  0  0  0  0  0  0
    1.8500    3.7125    0.0000 C   0  0  0  0  0  0  0  0  0  0  0  0
    2.5645    3.3000    0.0000 C   0  0  0  0  0  0  0  0  0  0  0  0
    2.5645    2.4750    0.0000 C   0  0  0  0  0  0  0  0  0  0  0  0
    3.2789    2.0625    0.0000 N   0  0  0  0  0  0  0  0  0  0  0  0
    3.2789    1.2375    0.0000 C   0  0  0  0  0  0  0  0  0  0  0  0
    3.9934    0.8250    0.0000 C   0  0  0  0  0  0  0  0  0  0  0  0
    3.9934    0.0000    0.0000 C   0  0  0  0  0  0  0  0  0  0  0  0
    4.7079   -0.4125    0.0000 C   0  0  0  0  0  0  0  0  0  0  0  0
    3.2789   -0.4125    0.0000 N   0  0  0  0  0  0  0  0  0  0  0  0
    2.5645    0.0000    0.0000 C   0  0  0  0  0  0  0  0  0  0  0  0
    1.7798   -0.2549    0.0000 N   0  0  0  0  0  0  0  0  0  0  0  0
    1.2949    0.4125    0.0000 C   0  0  0  0  0  0  0  0  0  0  0  0
    1.7798    1.0799    0.0000 N   0  0  0  0  0  0  0  0  0  0  0  0
    2.5645    0.8250    0.0000 N   0  0  0  0  0  0  0  0  0  0  0  0
    1.8500    2.0625    0.0000 C   0  0  0  0  0  0  0  0  0  0  0  0
    1.1355    2.4750    0.0000 C   0  0  0  0  0  0  0  0  0  0  0  0
  1  2  3  0  0  0  0
  2  3  1  0  0  0  0
  3  4  4  0  0  0  0
  4  5  4  0  0  0  0
  5  6  4  0  0  0  0
  6  7  1  0  0  0  0
  7  8  1  0  0  0  0
  8  9  4  0  0  0  0
  9 10  4  0  0  0  0
 10 11  1  0  0  0  0
 10 12  4  0  0  0  0
 12 13  4  0  0  0  0
 13 14  4  0  0  0  0
 14 15  4  0  0  0  0
 15 16  4  0  0  0  0
 16 17  4  0  0  0  0
  8 17  4  0  0  0  0
 13 17  4  0  0  0  0
  6 18  4  0  0  0  0
 18 19  4  0  0  0  0
  3 19  4  0  0  0  0
M  END
> <IC50(uM)>
100.0

> <Outcome>
0.0

> <BindingDB ID>
50643169

> <BindingDB MonomerID>
50345417

> <BindingDB Ligand Name>
CHEMBL1784564::N-(4-Ethynylphenyl)-5-methyl-[1,2,4]triazolo[1,5-a]pyrimidin-7-amine

> <Curation/DataSource>
ChEMBL

> <Article DOI>
10.1021/jm200265b

> <PMID>
21517059

> <Patent Number>
?

> <Authors>
Gujjar, R; El Mazouni, F; White, KL; White, J; Creason, S; Shackleford, DM; Deng, X; Charman, WN; Bathurst, I; Burrows, J; Floyd, DM; Matthews, D; Buckner, FS; Charman, SA; Phillips, MA; Rathod, PK

> <Link to Ligand in BindingDB>
http://www.bindingdb.org/bind/chemsearch/marvin/MolStructure.jsp?monomerid=50345417

> <Link to Ligand-Target Pair in BindingDB>
http://www.bindingdb.org/jsp/dbsearch/PrimarySearch_ki.jsp?energyterm=kJ/mole&tag=r21&monomerid=50345417&enzyme=Dihydroorotate+dehydrogenase&column=ki&startPg=0&Increment=50&submit=Search

> <PubChem CID>
44133775

> <PubChem SID>
131348353

$$$$

  Mrv2115 07222212352D          

 28 31  0  0  0  0            999 V2000
    5.1156   -3.2652    0.0000 C   0  0  0  0  0  0  0  0  0  0  0  0
    4.4011   -3.6777    0.0000 C   0  0  0  0  0  0  0  0  0  0  0  0
    4.4011   -4.5027    0.0000 C   0  0  0  0  0  0  0  0  0  0  0  0
    3.6866   -4.9152    0.0000 C   0  0  0  0  0  0  0  0  0  0  0  0
    3.6866   -5.7402    0.0000 N   0  0  0  0  0  0  0  0  0  0  0  0
    4.4011   -6.1527    0.0000 C   0  0  0  0  0  0  0  0  0  0  0  0
    5.1548   -5.8172    0.0000 C   0  0  0  0  0  0  0  0  0  0  0  0
    5.7068   -6.4303    0.0000 C   0  0  0  0  0  0  0  0  0  0  0  0
    6.5318   -6.4303    0.0000 C   0  0  0  0  0  0  0  0  0  0  0  0
    6.9443   -7.1447    0.0000 C   0  0  0  0  0  0  0  0  0  0  0  0
    6.5318   -7.8592    0.0000 C   0  0  0  0  0  0  0  0  0  0  0  0
    5.7068   -7.8592    0.0000 C   0  0  0  0  0  0  0  0  0  0  0  0
    5.2943   -8.5737    0.0000 C   0  0  0  0  0  0  0  0  0  0  0  0
    4.8818   -9.2882    0.0000 F   0  0  0  0  0  0  0  0  0  0  0  0
    6.0088   -8.9862    0.0000 F   0  0  0  0  0  0  0  0  0  0  0  0
    4.5799   -8.1612    0.0000 F   0  0  0  0  0  0  0  0  0  0  0  0
    5.2943   -7.1447    0.0000 C   0  0  0  0  0  0  0  0  0  0  0  0
    4.4874   -6.9732    0.0000 C   0  0  0  0  0  0  0  0  0  0  0  0
    2.9722   -4.5027    0.0000 N   0  0  0  0  0  0  0  0  0  0  0  0
    2.1876   -4.7577    0.0000 N   0  0  0  0  0  0  0  0  0  0  0  0
    1.7026   -4.0902    0.0000 C   0  0  0  0  0  0  0  0  0  0  0  0
    0.8776   -4.0902    0.0000 C   0  0  0  0  0  0  0  0  0  0  0  0
    0.0526   -4.0902    0.0000 C   0  0  0  0  0  0  0  0  0  0  0  0
    0.8776   -3.2652    0.0000 F   0  0  0  0  0  0  0  0  0  0  0  0
    0.8776   -4.9152    0.0000 F   0  0  0  0  0  0  0  0  0  0  0  0
    2.1876   -3.4228    0.0000 N   0  0  0  0  0  0  0  0  0  0  0  0
    2.9722   -3.6777    0.0000 C   0  0  0  0  0  0  0  0  0  0  0  0
    3.6866   -3.2652    0.0000 N   0  0  0  0  0  0  0  0  0  0  0  0
  1  2  1  0  0  0  0
  2  3  4  0  0  0  0
  3  4  4  0  0  0  0
  4  5  1  0  0  0  0
  5  6  1  0  0  0  0
  6  7  1  0  0  0  0
  7  8  1  0  0  0  0
  8  9  4  0  0  0  0
  9 10  4  0  0  0  0
 10 11  4  0  0  0  0
 11 12  4  0  0  0  0
 12 13  1  0  0  0  0
 13 14  1  0  0  0  0
 13 15  1  0  0  0  0
 13 16  1  0  0  0  0
 12 17  4  0  0  0  0
  8 17  4  0  0  0  0
 17 18  1  0  0  0  0
  6 18  1  0  0  0  0
  4 19  4  0  0  0  0
 19 20  4  0  0  0  0
 20 21  4  0  0  0  0
 21 22  1  0  0  0  0
 22 23  1  0  0  0  0
 22 24  1  0  0  0  0
 22 25  1  0  0  0  0
 21 26  4  0  0  0  0
 26 27  4  0  0  0  0
 19 27  4  0  0  0  0
 27 28  4  0  0  0  0
  2 28  4  0  0  0  0
M  END
> <IC50(uM)>
100.0

> <Outcome>
0.0

> <BindingDB ID>
51373014

> <BindingDB MonomerID>
50555380

> <BindingDB Ligand Name>
CHEMBL4760735

> <Curation/DataSource>
ChEMBL

> <Article DOI>
?

> <PMID>
27127993

> <Patent Number>
?

> <Authors>
Kokkonda, S; Deng, X; White, KL; Coteron, JM; Marco, M; de Las Heras, L; White, J; El Mazouni, F; Tomchick, DR; Manjalanagara, K; Rudra, KR; Chen, G; Morizzi, J; Ryan, E; Kaminsky, W; Leroy, D; Mart??nez-Mart??nez, MS; Jimenez-Diaz, MB; Bazaga, SF; Angulo-Barturen, I; Waterson, D; Burrows, JN; Matthews, D; Charman, SA; Phillips, MA; Rathod, PK

> <Link to Ligand in BindingDB>
http://www.bindingdb.org/bind/chemsearch/marvin/MolStructure.jsp?monomerid=50555380

> <Link to Ligand-Target Pair in BindingDB>
http://www.bindingdb.org/jsp/dbsearch/PrimarySearch_ki.jsp?energyterm=kJ/mole&tag=r21&monomerid=50555380&enzyme=Dihydroorotate+dehydrogenase&column=ki&startPg=0&Increment=50&submit=Search

> <PubChem CID>
162658044

> <PubChem SID>
461694148

$$$$

  Mrv2115 07222212352D          

 26 29  0  0  0  0            999 V2000
    2.1434   -2.8875    0.0000 O   0  0  0  0  0  0  0  0  0  0  0  0
    1.4289   -2.4750    0.0000 C   0  0  0  0  0  0  0  0  0  0  0  0
    0.7145   -2.8875    0.0000 O   0  0  0  0  0  0  0  0  0  0  0  0
    1.4289   -1.6500    0.0000 C   0  0  0  0  0  0  0  0  0  0  0  0
    0.7145   -1.2375    0.0000 C   0  0  0  0  0  0  0  0  0  0  0  0
    0.0000   -1.6500    0.0000 O   0  0  0  0  0  0  0  0  0  0  0  0
    0.7145   -0.4125    0.0000 C   0  0  0  0  0  0  0  0  0  0  0  0
    0.0000    0.0000    0.0000 C   0  0  0  0  0  0  0  0  0  0  0  0
   -0.7145   -0.4125    0.0000 C   0  0  0  0  0  0  0  0  0  0  0  0
   -1.4289    0.0000    0.0000 C   0  0  0  0  0  0  0  0  0  0  0  0
   -1.4289    0.8250    0.0000 C   0  0  0  0  0  0  0  0  0  0  0  0
   -2.1434    1.2375    0.0000 Cl  0  0  0  0  0  0  0  0  0  0  0  0
   -0.7145    1.2375    0.0000 C   0  0  0  0  0  0  0  0  0  0  0  0
    0.0000    0.8250    0.0000 C   0  0  0  0  0  0  0  0  0  0  0  0
    1.4289    0.0000    0.0000 N   0  0  0  0  0  0  0  0  0  0  0  0
    2.1434   -0.4125    0.0000 C   0  0  0  0  0  0  0  0  0  0  0  0
    2.8579    0.0000    0.0000 C   0  0  0  0  0  0  0  0  0  0  0  0
    3.5724   -0.4125    0.0000 C   0  0  0  0  0  0  0  0  0  0  0  0
    3.5724   -1.2375    0.0000 C   0  0  0  0  0  0  0  0  0  0  0  0
    4.2868   -1.6500    0.0000 C   0  0  0  0  0  0  0  0  0  0  0  0
    5.0405   -1.3144    0.0000 C   0  0  0  0  0  0  0  0  0  0  0  0
    5.5925   -1.9275    0.0000 C   0  0  0  0  0  0  0  0  0  0  0  0
    5.1800   -2.6420    0.0000 S   0  0  0  0  0  0  0  0  0  0  0  0
    4.3731   -2.4705    0.0000 C   0  0  0  0  0  0  0  0  0  0  0  0
    2.8579   -1.6500    0.0000 C   0  0  0  0  0  0  0  0  0  0  0  0
    2.1434   -1.2375    0.0000 C   0  0  0  0  0  0  0  0  0  0  0  0
  1  2  2  0  0  0  0
  2  3  1  0  0  0  0
  2  4  1  0  0  0  0
  4  5  4  0  0  0  0
  5  6  1  0  0  0  0
  5  7  4  0  0  0  0
  7  8  1  0  0  0  0
  8  9  4  0  0  0  0
  9 10  4  0  0  0  0
 10 11  4  0  0  0  0
 11 12  1  0  0  0  0
 11 13  4  0  0  0  0
 13 14  4  0  0  0  0
  8 14  4  0  0  0  0
  7 15  4  0  0  0  0
 15 16  4  0  0  0  0
 16 17  4  0  0  0  0
 17 18  4  0  0  0  0
 18 19  4  0  0  0  0
 19 20  1  0  0  0  0
 20 21  4  0  0  0  0
 21 22  4  0  0  0  0
 22 23  4  0  0  0  0
 23 24  4  0  0  0  0
 20 24  4  0  0  0  0
 19 25  4  0  0  0  0
 25 26  4  0  0  0  0
  4 26  4  0  0  0  0
 16 26  4  0  0  0  0
M  END
> <IC50(uM)>
134.0

> <Outcome>
0.0

> <BindingDB ID>
50841928

> <BindingDB MonomerID>
50201946

> <BindingDB Ligand Name>
2-(4-chlorophenyl)-3-hydroxy-6-(thiophen-3-yl)quinoline-4-carboxylic acid::CHEMBL387288

> <Curation/DataSource>
ChEMBL

> <Article DOI>
10.1021/jm0602256

> <PMID>
17201408

> <Patent Number>
?

> <Authors>
Kaila, N; Janz, K; DeBernardo, S; Bedard, PW; Camphausen, RT; Tam, S; Tsao, DH; Keith, JC; Nickerson-Nutter, C; Shilling, A; Young-Sciame, R; Wang, Q

> <Link to Ligand in BindingDB>
http://www.bindingdb.org/bind/chemsearch/marvin/MolStructure.jsp?monomerid=50201946

> <Link to Ligand-Target Pair in BindingDB>
http://www.bindingdb.org/jsp/dbsearch/PrimarySearch_ki.jsp?energyterm=kJ/mole&tag=r21&monomerid=50201946&enzyme=Dihydroorotate+dehydrogenase&column=ki&startPg=0&Increment=50&submit=Search

> <PubChem CID>
16100002

> <PubChem SID>
104081597

$$$$

  Mrv2115 07222212352D          

 27 30  0  0  0  0            999 V2000
    4.0668    2.3479    0.0000 C   0  0  0  0  0  0  0  0  0  0  0  0
    3.3523    1.9354    0.0000 C   0  0  0  0  0  0  0  0  0  0  0  0
    3.3523    1.1104    0.0000 C   0  0  0  0  0  0  0  0  0  0  0  0
    2.6378    0.6979    0.0000 C   0  0  0  0  0  0  0  0  0  0  0  0
    2.6378   -0.1271    0.0000 C   0  0  0  0  0  0  0  0  0  0  0  0
    1.9233   -0.5396    0.0000 O   0  0  0  0  0  0  0  0  0  0  0  0
    3.3523   -0.5396    0.0000 O   0  0  0  0  0  0  0  0  0  0  0  0
    1.9233    1.1104    0.0000 C   0  0  0  0  0  0  0  0  0  0  0  0
    1.1387    0.8555    0.0000 N   0  0  0  0  0  0  0  0  0  0  0  0
    0.6538    1.5229    0.0000 C   0  0  0  0  0  0  0  0  0  0  0  0
   -0.1712    1.5229    0.0000 C   0  0  0  0  0  0  0  0  0  0  0  0
   -0.5837    0.8085    0.0000 C   0  0  0  0  0  0  0  0  0  0  0  0
   -1.4087    0.8085    0.0000 C   0  0  0  0  0  0  0  0  0  0  0  0
   -1.8212    1.5229    0.0000 C   0  0  0  0  0  0  0  0  0  0  0  0
   -2.6462    1.5229    0.0000 C   0  0  0  0  0  0  0  0  0  0  0  0
   -3.0587    0.8085    0.0000 C   0  0  0  0  0  0  0  0  0  0  0  0
   -3.8837    0.8085    0.0000 C   0  0  0  0  0  0  0  0  0  0  0  0
   -4.2962    1.5229    0.0000 C   0  0  0  0  0  0  0  0  0  0  0  0
   -3.8837    2.2374    0.0000 C   0  0  0  0  0  0  0  0  0  0  0  0
   -4.2962    2.9519    0.0000 F   0  0  0  0  0  0  0  0  0  0  0  0
   -3.0587    2.2374    0.0000 C   0  0  0  0  0  0  0  0  0  0  0  0
   -2.6462    2.9519    0.0000 F   0  0  0  0  0  0  0  0  0  0  0  0
   -1.4087    2.2374    0.0000 C   0  0  0  0  0  0  0  0  0  0  0  0
   -0.5837    2.2374    0.0000 C   0  0  0  0  0  0  0  0  0  0  0  0
    1.1387    2.1904    0.0000 N   0  0  0  0  0  0  0  0  0  0  0  0
    1.9233    1.9354    0.0000 C   0  0  0  0  0  0  0  0  0  0  0  0
    2.6378    2.3479    0.0000 C   0  0  0  0  0  0  0  0  0  0  0  0
  1  2  1  0  0  0  0
  2  3  4  0  0  0  0
  3  4  4  0  0  0  0
  4  5  1  0  0  0  0
  5  6  2  0  0  0  0
  5  7  1  0  0  0  0
  4  8  4  0  0  0  0
  8  9  4  0  0  0  0
  9 10  4  0  0  0  0
 10 11  1  0  0  0  0
 11 12  4  0  0  0  0
 12 13  4  0  0  0  0
 13 14  4  0  0  0  0
 14 15  1  0  0  0  0
 15 16  4  0  0  0  0
 16 17  4  0  0  0  0
 17 18  4  0  0  0  0
 18 19  4  0  0  0  0
 19 20  1  0  0  0  0
 19 21  4  0  0  0  0
 15 21  4  0  0  0  0
 21 22  1  0  0  0  0
 14 23  4  0  0  0  0
 23 24  4  0  0  0  0
 11 24  4  0  0  0  0
 10 25  4  0  0  0  0
 25 26  4  0  0  0  0
  8 26  4  0  0  0  0
 26 27  4  0  0  0  0
  2 27  4  0  0  0  0
M  STY  1   1 DAT
M  SAL   1  1  25
M  SDT   1 MRV_IMPLICIT_H                                        
M  SDD   1     0.5304   -0.4125    DR    ALL  0       0  
M  SED   1 IMPL_H1
M  END
> <IC50(uM)>
0.898

> <Outcome>
1.0

> <BindingDB ID>
297771

> <BindingDB MonomerID>
155427

> <BindingDB Ligand Name>
US9006454, I52

> <Curation/DataSource>
US Patent

> <Article DOI>
?

> <PMID>
?

> <Patent Number>
US9006454

> <Authors>
Thunuguntla, SS; Subramanya, H; Kunnam, SR; Sanivaru Vijay, SR; Bingi, C; Kusanur, R; Schwarz, M; Arlt, M

> <Link to Ligand in BindingDB>
http://www.bindingdb.org/bind/chemsearch/marvin/MolStructure.jsp?monomerid=155427

> <Link to Ligand-Target Pair in BindingDB>
http://www.bindingdb.org/jsp/dbsearch/PrimarySearch_ki.jsp?energyterm=kJ/mole&tag=r21&monomerid=155427&enzyme=Dihydroorotate+dehydrogenase&column=ki&startPg=0&Increment=50&submit=Search

> <PubChem CID>
46946783

> <PubChem SID>
253658364

$$$$

  Mrv2115 07222212352D          

 21 22  0  0  0  0            999 V2000
    0.7145   -1.2375    0.0000 O   0  0  0  0  0  0  0  0  0  0  0  0
    1.4289   -1.6500    0.0000 C   0  0  0  0  0  0  0  0  0  0  0  0
    2.1434   -1.2375    0.0000 O   0  0  0  0  0  0  0  0  0  0  0  0
    1.4289   -2.4750    0.0000 C   0  0  0  0  0  0  0  0  0  0  0  0
    2.1434   -2.8875    0.0000 N   0  0  0  0  0  0  0  0  0  0  0  0
    2.1434   -3.7125    0.0000 C   0  0  0  0  0  0  0  0  0  0  0  0
    2.8579   -4.1250    0.0000 O   0  0  0  0  0  0  0  0  0  0  0  0
    1.4289   -4.1250    0.0000 N   0  0  0  0  0  0  0  0  0  0  0  0
    0.7145   -3.7125    0.0000 C   0  0  0  0  0  0  0  0  0  0  0  0
    0.0000   -4.1250    0.0000 O   0  0  0  0  0  0  0  0  0  0  0  0
    0.7145   -2.8875    0.0000 C   0  0  0  0  0  0  0  0  0  0  0  0
    0.0000   -2.4750    0.0000 C   0  0  0  0  0  0  0  0  0  0  0  0
   -0.7145   -2.8875    0.0000 C   0  0  0  0  0  0  0  0  0  0  0  0
   -1.4289   -2.4750    0.0000 C   0  0  0  0  0  0  0  0  0  0  0  0
   -2.1434   -2.8875    0.0000 C   0  0  0  0  0  0  0  0  0  0  0  0
   -2.8579   -2.4750    0.0000 C   0  0  0  0  0  0  0  0  0  0  0  0
   -2.8579   -1.6500    0.0000 C   0  0  0  0  0  0  0  0  0  0  0  0
   -3.5724   -1.2375    0.0000 F   0  0  0  0  0  0  0  0  0  0  0  0
   -2.1434   -1.2375    0.0000 C   0  0  0  0  0  0  0  0  0  0  0  0
   -2.1434   -0.4125    0.0000 F   0  0  0  0  0  0  0  0  0  0  0  0
   -1.4289   -1.6500    0.0000 C   0  0  0  0  0  0  0  0  0  0  0  0
  1  2  2  0  0  0  0
  2  3  1  0  0  0  0
  2  4  1  0  0  0  0
  4  5  4  0  0  0  0
  5  6  4  0  0  0  0
  6  7  2  0  0  0  0
  6  8  4  0  0  0  0
  8  9  4  0  0  0  0
  9 10  2  0  0  0  0
  9 11  4  0  0  0  0
  4 11  4  0  0  0  0
 11 12  1  0  0  0  0
 12 13  1  0  0  0  0
 13 14  1  0  0  0  0
 14 15  4  0  0  0  0
 15 16  4  0  0  0  0
 16 17  4  0  0  0  0
 17 18  1  0  0  0  0
 17 19  4  0  0  0  0
 19 20  1  0  0  0  0
 19 21  4  0  0  0  0
 14 21  4  0  0  0  0
M  STY  2   1 DAT   2 DAT
M  SAL   1  1   5
M  SDT   1 MRV_IMPLICIT_H                                        
M  SDD   1     0.5304   -0.4125    DR    ALL  0       0  
M  SED   1 IMPL_H1
M  SAL   2  1   8
M  SDT   2 MRV_IMPLICIT_H                                        
M  SDD   2     0.6482   -0.4125    DR    ALL  0       0  
M  SED   2 IMPL_H1
M  END
> <IC50(uM)>
5.0

> <Outcome>
0.0

> <BindingDB ID>
50555333

> <BindingDB MonomerID>
50211961

> <BindingDB Ligand Name>
CHEMBL3984707

> <Curation/DataSource>
ChEMBL

> <Article DOI>
10.1016/j.bmc.2017.01.009

> <PMID>
28118956

> <Patent Number>
?

> <Authors>
Inaoka, DK; Iida, M; Hashimoto, S; Tabuchi, T; Kuranaga, T; Balogun, EO; Honma, T; Tanaka, A; Harada, S; Nara, T; Kita, K; Inoue, M

> <Link to Ligand in BindingDB>
http://www.bindingdb.org/bind/chemsearch/marvin/MolStructure.jsp?monomerid=50211961

> <Link to Ligand-Target Pair in BindingDB>
http://www.bindingdb.org/jsp/dbsearch/PrimarySearch_ki.jsp?energyterm=kJ/mole&tag=r21&monomerid=50211961&enzyme=Dihydroorotate+dehydrogenase&column=ki&startPg=0&Increment=50&submit=Search

> <PubChem CID>
134156999

> <PubChem SID>
375983081

$$$$

  Mrv2115 07222212352D          

 35 38  0  0  0  0            999 V2000
   -3.1034    2.1599    0.0000 C   0  0  0  0  0  0  0  0  0  0  0  0
   -2.6909    1.4455    0.0000 C   0  0  0  0  0  0  0  0  0  0  0  0
   -3.1034    0.7310    0.0000 O   0  0  0  0  0  0  0  0  0  0  0  0
   -2.6909    0.0165    0.0000 C   0  0  0  0  0  0  0  0  0  0  0  0
   -1.8659    0.0165    0.0000 C   0  0  0  0  0  0  0  0  0  0  0  0
   -1.4534   -0.6979    0.0000 C   0  0  0  0  0  0  0  0  0  0  0  0
   -0.6284   -0.6979    0.0000 N   0  0  0  0  0  0  0  0  0  0  0  0
   -0.1435   -1.3654    0.0000 N   0  0  0  0  0  0  0  0  0  0  0  0
    0.6411   -1.1104    0.0000 C   0  0  0  0  0  0  0  0  0  0  0  0
    0.6411   -0.2854    0.0000 N   0  0  0  0  0  0  0  0  0  0  0  0
   -0.1435   -0.0305    0.0000 C   0  0  0  0  0  0  0  0  0  0  0  0
   -0.3984    0.7541    0.0000 O   0  0  0  0  0  0  0  0  0  0  0  0
    1.3556    0.1271    0.0000 C   0  0  0  0  0  0  0  0  0  0  0  0
    2.0701   -0.2854    0.0000 C   0  0  0  0  0  0  0  0  0  0  0  0
    2.0701   -1.1104    0.0000 C   0  0  0  0  0  0  0  0  0  0  0  0
    1.3556   -1.5229    0.0000 C   0  0  0  0  0  0  0  0  0  0  0  0
   -1.8659   -1.4124    0.0000 C   0  0  0  0  0  0  0  0  0  0  0  0
   -1.4534   -2.1269    0.0000 F   0  0  0  0  0  0  0  0  0  0  0  0
   -2.6909   -1.4124    0.0000 C   0  0  0  0  0  0  0  0  0  0  0  0
   -3.1034   -0.6979    0.0000 C   0  0  0  0  0  0  0  0  0  0  0  0
   -3.9284   -0.6979    0.0000 C   0  0  0  0  0  0  0  0  0  0  0  0
   -4.3409    0.0165    0.0000 O   0  0  0  0  0  0  0  0  0  0  0  0
   -4.3409   -1.4124    0.0000 N   0  0  0  0  0  0  0  0  0  0  0  0
   -5.1659   -1.4124    0.0000 C   0  0  0  0  0  0  0  0  0  0  0  0
   -5.5784   -2.1269    0.0000 C   0  0  0  0  0  0  0  0  0  0  0  0
   -5.1659   -2.8414    0.0000 F   0  0  0  0  0  0  0  0  0  0  0  0
   -6.4034   -2.1269    0.0000 C   0  0  0  0  0  0  0  0  0  0  0  0
   -6.8159   -1.4124    0.0000 C   0  0  0  0  0  0  0  0  0  0  0  0
   -6.4034   -0.6979    0.0000 C   0  0  0  0  0  0  0  0  0  0  0  0
   -5.5784   -0.6979    0.0000 C   0  0  0  0  0  0  0  0  0  0  0  0
   -5.1659    0.0165    0.0000 Cl  0  0  0  0  0  0  0  0  0  0  0  0
   -1.8659    1.4455    0.0000 C   0  0  0  0  0  0  0  0  0  0  0  0
   -1.8659    0.6205    0.0000 F   0  0  0  0  0  0  0  0  0  0  0  0
   -1.8659    2.2705    0.0000 F   0  0  0  0  0  0  0  0  0  0  0  0
   -1.0409    1.4455    0.0000 F   0  0  0  0  0  0  0  0  0  0  0  0
  1  2  1  0  0  0  0
  2  3  1  0  0  0  0
  3  4  1  0  0  0  0
  4  5  4  0  0  0  0
  5  6  4  0  0  0  0
  6  7  1  0  0  0  0
  7  8  4  0  0  0  0
  8  9  4  0  0  0  0
  9 10  4  0  0  0  0
 10 11  4  0  0  0  0
  7 11  4  0  0  0  0
 11 12  2  0  0  0  0
 10 13  1  0  0  0  0
 13 14  1  0  0  0  0
 14 15  1  0  0  0  0
 15 16  1  0  0  0  0
  9 16  1  0  0  0  0
  6 17  4  0  0  0  0
 17 18  1  0  0  0  0
 17 19  4  0  0  0  0
 19 20  4  0  0  0  0
  4 20  4  0  0  0  0
 20 21  1  0  0  0  0
 21 22  2  0  0  0  0
 21 23  1  0  0  0  0
 23 24  1  0  0  0  0
 24 25  4  0  0  0  0
 25 26  1  0  0  0  0
 25 27  4  0  0  0  0
 27 28  4  0  0  0  0
 28 29  4  0  0  0  0
 29 30  4  0  0  0  0
 24 30  4  0  0  0  0
 30 31  1  0  0  0  0
  2 32  1  0  0  0  0
 32 33  1  0  0  0  0
 32 34  1  0  0  0  0
 32 35  1  0  0  0  0
M  END
> <IC50(uM)>
0.0034999999999999996

> <Outcome>
1.0

> <BindingDB ID>
1020431

> <BindingDB MonomerID>
490382

> <BindingDB Ligand Name>
N-(2-chloro-6-fluorophenyl)-5-fluoro-4-(3-oxo-5,6,7,8-tetrahydro[1,2,4]triazolo[4,3-a]pyridin-2(3H)-yl)-2-{[(2S)-1,1,1-trifluoropropan-2-yl]oxy}benzamide::US10968216, Example 50

> <Curation/DataSource>
US Patent

> <Article DOI>
?

> <PMID>
?

> <Patent Number>
US10968216

> <Authors>
Gradl, SN; Nguyen, D; Eis, K; Gunther, J; Stellfeld, T; Janzer, A; Christian, S; Mueller, T; Sheikh, SE; Zhou, HJ; Zhao, C; Sykes, DB; Ferrara, SJ; Liu, K; Herbert, SA; Merz, C; Niehues, M; Nising, CF; Schafer, M; Zimmermann, K; Knablein, J; Thede, K; Faupel, T

> <Link to Ligand in BindingDB>
http://www.bindingdb.org/bind/chemsearch/marvin/MolStructure.jsp?monomerid=490382

> <Link to Ligand-Target Pair in BindingDB>
http://www.bindingdb.org/jsp/dbsearch/PrimarySearch_ki.jsp?energyterm=kJ/mole&tag=r21&monomerid=490382&enzyme=Dihydroorotate+dehydrogenase&column=ki&startPg=0&Increment=50&submit=Search

> <PubChem CID>
134473931

> <PubChem SID>
447117109

$$$$

  Mrv2115 07222212352D          

 26 29  0  0  0  0            999 V2000
    6.8513   -2.4750    0.0000 C   0  0  0  0  0  0  0  0  0  0  0  0
    6.1368   -2.8875    0.0000 C   0  0  0  0  0  0  0  0  0  0  0  0
    6.1368   -3.7125    0.0000 C   0  0  0  0  0  0  0  0  0  0  0  0
    5.4223   -4.1250    0.0000 C   0  0  0  0  0  0  0  0  0  0  0  0
    5.4223   -4.9500    0.0000 N   0  0  0  0  0  0  0  0  0  0  0  0
    6.1368   -5.3625    0.0000 C   0  0  0  0  0  0  0  0  0  0  0  0
    6.8513   -4.9500    0.0000 C   0  0  0  0  0  0  0  0  0  0  0  0
    7.5658   -5.3625    0.0000 C   0  0  0  0  0  0  0  0  0  0  0  0
    7.5658   -6.1875    0.0000 C   0  0  0  0  0  0  0  0  0  0  0  0
    8.2802   -6.6000    0.0000 C   0  0  0  0  0  0  0  0  0  0  0  0
    8.2802   -7.4250    0.0000 C   0  0  0  0  0  0  0  0  0  0  0  0
    8.9947   -7.8375    0.0000 Br  0  0  0  0  0  0  0  0  0  0  0  0
    7.5658   -7.8375    0.0000 C   0  0  0  0  0  0  0  0  0  0  0  0
    6.8513   -7.4250    0.0000 C   0  0  0  0  0  0  0  0  0  0  0  0
    6.8513   -6.6000    0.0000 C   0  0  0  0  0  0  0  0  0  0  0  0
    6.1368   -6.1875    0.0000 C   0  0  0  0  0  0  0  0  0  0  0  0
    4.7079   -3.7125    0.0000 N   0  0  0  0  0  0  0  0  0  0  0  0
    3.9232   -3.9674    0.0000 N   0  0  0  0  0  0  0  0  0  0  0  0
    3.4383   -3.3000    0.0000 C   0  0  0  0  0  0  0  0  0  0  0  0
    2.6133   -3.3000    0.0000 C   0  0  0  0  0  0  0  0  0  0  0  0
    1.7883   -3.3000    0.0000 C   0  0  0  0  0  0  0  0  0  0  0  0
    2.6133   -2.4750    0.0000 F   0  0  0  0  0  0  0  0  0  0  0  0
    2.6133   -4.1250    0.0000 F   0  0  0  0  0  0  0  0  0  0  0  0
    3.9232   -2.6326    0.0000 N   0  0  0  0  0  0  0  0  0  0  0  0
    4.7079   -2.8875    0.0000 C   0  0  0  0  0  0  0  0  0  0  0  0
    5.4223   -2.4750    0.0000 N   0  0  0  0  0  0  0  0  0  0  0  0
  1  2  1  0  0  0  0
  2  3  4  0  0  0  0
  3  4  4  0  0  0  0
  4  5  1  0  0  0  0
  5  6  1  0  0  0  0
  6  7  1  0  0  0  0
  7  8  1  0  0  0  0
  8  9  1  0  0  0  0
  9 10  4  0  0  0  0
 10 11  4  0  0  0  0
 11 12  1  0  0  0  0
 11 13  4  0  0  0  0
 13 14  4  0  0  0  0
 14 15  4  0  0  0  0
  9 15  4  0  0  0  0
 15 16  1  0  0  0  0
  6 16  1  0  0  0  0
  4 17  4  0  0  0  0
 17 18  4  0  0  0  0
 18 19  4  0  0  0  0
 19 20  1  0  0  0  0
 20 21  1  0  0  0  0
 20 22  1  0  0  0  0
 20 23  1  0  0  0  0
 19 24  4  0  0  0  0
 24 25  4  0  0  0  0
 17 25  4  0  0  0  0
 25 26  4  0  0  0  0
  2 26  4  0  0  0  0
M  END
> <IC50(uM)>
100.0

> <Outcome>
0.0

> <BindingDB ID>
51372999; 51373000

> <BindingDB MonomerID>
50555366

> <BindingDB Ligand Name>
CHEMBL4747214

> <Curation/DataSource>
ChEMBL

> <Article DOI>
?

> <PMID>
27127993

> <Patent Number>
?

> <Authors>
Kokkonda, S; Deng, X; White, KL; Coteron, JM; Marco, M; de Las Heras, L; White, J; El Mazouni, F; Tomchick, DR; Manjalanagara, K; Rudra, KR; Chen, G; Morizzi, J; Ryan, E; Kaminsky, W; Leroy, D; Mart??nez-Mart??nez, MS; Jimenez-Diaz, MB; Bazaga, SF; Angulo-Barturen, I; Waterson, D; Burrows, JN; Matthews, D; Charman, SA; Phillips, MA; Rathod, PK

> <Link to Ligand in BindingDB>
http://www.bindingdb.org/bind/chemsearch/marvin/MolStructure.jsp?monomerid=50555366

> <Link to Ligand-Target Pair in BindingDB>
http://www.bindingdb.org/jsp/dbsearch/PrimarySearch_ki.jsp?energyterm=kJ/mole&tag=r21&monomerid=50555366&enzyme=Dihydroorotate+dehydrogenase&column=ki&startPg=0&Increment=50&submit=Search

> <PubChem CID>
162650133

> <PubChem SID>
461694134

$$$$

  Mrv2115 07222212352D          

 35 37  0  0  0  0            999 V2000
    2.1434   -3.7125    0.0000 C   0  0  0  0  0  0  0  0  0  0  0  0
    1.4289   -4.1250    0.0000 C   0  0  0  0  0  0  0  0  0  0  0  0
    1.4289   -4.9500    0.0000 N   0  0  0  0  0  0  0  0  0  0  0  0
    2.0964   -5.4349    0.0000 C   0  0  0  0  0  0  0  0  0  0  0  0
    2.8810   -5.1800    0.0000 C   0  0  0  0  0  0  0  0  0  0  0  0
    3.4941   -5.7320    0.0000 O   0  0  0  0  0  0  0  0  0  0  0  0
    1.8414   -6.2195    0.0000 N   0  0  0  0  0  0  0  0  0  0  0  0
    1.0164   -6.2195    0.0000 N   0  0  0  0  0  0  0  0  0  0  0  0
    0.5315   -6.8870    0.0000 C   0  0  0  0  0  0  0  0  0  0  0  0
    0.8671   -7.6407    0.0000 C   0  0  0  0  0  0  0  0  0  0  0  0
    0.3822   -8.3081    0.0000 C   0  0  0  0  0  0  0  0  0  0  0  0
   -0.4383   -8.2219    0.0000 C   0  0  0  0  0  0  0  0  0  0  0  0
   -0.9232   -8.8893    0.0000 C   0  0  0  0  0  0  0  0  0  0  0  0
   -1.7437   -8.8031    0.0000 O   0  0  0  0  0  0  0  0  0  0  0  0
   -0.5877   -9.6430    0.0000 N   0  0  0  0  0  0  0  0  0  0  0  0
   -1.0726  -10.3104    0.0000 C   0  0  0  0  0  0  0  0  0  0  0  0
   -0.7371  -11.0641    0.0000 C   0  0  0  0  0  0  0  0  0  0  0  0
    0.0834  -11.1503    0.0000 F   0  0  0  0  0  0  0  0  0  0  0  0
   -1.2220  -11.7315    0.0000 C   0  0  0  0  0  0  0  0  0  0  0  0
   -2.0425  -11.6453    0.0000 C   0  0  0  0  0  0  0  0  0  0  0  0
   -2.3780  -10.8916    0.0000 C   0  0  0  0  0  0  0  0  0  0  0  0
   -1.8931  -10.2242    0.0000 C   0  0  0  0  0  0  0  0  0  0  0  0
   -2.2287   -9.4705    0.0000 Cl  0  0  0  0  0  0  0  0  0  0  0  0
   -0.7739   -7.4682    0.0000 C   0  0  0  0  0  0  0  0  0  0  0  0
   -1.5944   -7.3820    0.0000 O   0  0  0  0  0  0  0  0  0  0  0  0
   -1.9299   -6.6283    0.0000 C   0  0  0  0  0  0  0  0  0  0  0  0
   -1.4450   -5.9608    0.0000 C   0  0  0  0  0  0  0  0  0  0  0  0
   -2.7504   -6.5420    0.0000 C   0  0  0  0  0  0  0  0  0  0  0  0
   -2.6642   -5.7216    0.0000 F   0  0  0  0  0  0  0  0  0  0  0  0
   -2.8366   -7.3625    0.0000 F   0  0  0  0  0  0  0  0  0  0  0  0
   -3.5709   -6.4558    0.0000 F   0  0  0  0  0  0  0  0  0  0  0  0
   -0.2890   -6.8007    0.0000 C   0  0  0  0  0  0  0  0  0  0  0  0
   -0.6245   -6.0471    0.0000 F   0  0  0  0  0  0  0  0  0  0  0  0
    0.7615   -5.4349    0.0000 C   0  0  0  0  0  0  0  0  0  0  0  0
   -0.0231   -5.1800    0.0000 O   0  0  0  0  0  0  0  0  0  0  0  0
  1  2  1  0  0  0  0
  2  3  1  0  0  0  0
  3  4  4  0  0  0  0
  4  5  1  0  0  0  0
  5  6  1  0  0  0  0
  4  7  4  0  0  0  0
  7  8  4  0  0  0  0
  8  9  1  0  0  0  0
  9 10  4  0  0  0  0
 10 11  4  0  0  0  0
 11 12  4  0  0  0  0
 12 13  1  0  0  0  0
 13 14  2  0  0  0  0
 13 15  1  0  0  0  0
 15 16  1  0  0  0  0
 16 17  4  0  0  0  0
 17 18  1  0  0  0  0
 17 19  4  0  0  0  0
 19 20  4  0  0  0  0
 20 21  4  0  0  0  0
 21 22  4  0  0  0  0
 16 22  4  0  0  0  0
 22 23  1  0  0  0  0
 12 24  4  0  0  0  0
 24 25  1  0  0  0  0
 25 26  1  0  0  0  0
 26 27  1  0  0  0  0
 26 28  1  0  0  0  0
 28 29  1  0  0  0  0
 28 30  1  0  0  0  0
 28 31  1  0  0  0  0
 24 32  4  0  0  0  0
  9 32  4  0  0  0  0
 32 33  1  0  0  0  0
  8 34  4  0  0  0  0
  3 34  4  0  0  0  0
 34 35  2  0  0  0  0
M  END
> <IC50(uM)>
0.25

> <Outcome>
1.0

> <BindingDB ID>
1098803; 972649

> <BindingDB MonomerID>
470527

> <BindingDB Ligand Name>
N-(2-chloro-6-fluorophenyl)-4-[4-ethyl-3-(hydroxymethyl)-5-oxo-4,5-dihydro-1H-1,2,4-triazol-1-yl]-3-fluoro-2-{[(2S)-1,1,1-trifluoropropan-2-yl]oxy}benzamide::US10815215, Example 187::US11130745, Example 187; N-(2-chloro-6-fluorophenyl)-4-[4-ethyl-3-(hydroxymethyl)-5-oxo-4,5-dihydro-1H-1,2,4-triazol-1-yl]-3-fluoro-2-{[(2S)-1,1,1-trifluoropropan-2-yl]oxy}benzamide::US10815215, Example 187

> <Curation/DataSource>
US Patent

> <Article DOI>
?

> <PMID>
?

> <Patent Number>
US11130745; US10815215

> <Authors>
Gradl, SN; Nguyen, D; Eis, K; Gunther, J; Stellfeld, T; Janzer, A; Christian, S; Muller, T; Sheikh, SE; Sykes, DB; Ferrara, SJ; Krober, M; Merz, C; Niehues, M; Schafer, M; Zimmermann, K; Nising, CF; Gradl, SN; Nguyen, D; Eis, K; Gunther, J; Stellfeld, T; Janzer, A; Christian, S; Muller, T; Sheikh, SE; Zhou, HJ; Zhao, C; Sykes, DB; Ferrara, SJ; Liu, K; Krober, M; Merz, C; Niehues, M; Schafer, M; Zimmermann, K; Nising, CF

> <Link to Ligand in BindingDB>
http://www.bindingdb.org/bind/chemsearch/marvin/MolStructure.jsp?monomerid=470527

> <Link to Ligand-Target Pair in BindingDB>
http://www.bindingdb.org/jsp/dbsearch/PrimarySearch_ki.jsp?energyterm=kJ/mole&tag=r21&monomerid=470527&enzyme=Dihydroorotate+dehydrogenase&column=ki&startPg=0&Increment=50&submit=Search

> <PubChem CID>
134469945

> <PubChem SID>
441609703

$$$$

  Mrv2115 07222212352D          

 29 33  0  0  0  0            999 V2000
   -5.9581    3.8288    0.0000 C   0  0  0  0  0  0  0  0  0  0  0  0
   -5.1376    3.9151    0.0000 C   0  0  0  0  0  0  0  0  0  0  0  0
   -4.8020    4.6687    0.0000 C   0  0  0  0  0  0  0  0  0  0  0  0
   -3.9816    4.7550    0.0000 C   0  0  0  0  0  0  0  0  0  0  0  0
   -3.4966    4.0875    0.0000 C   0  0  0  0  0  0  0  0  0  0  0  0
   -3.8322    3.3339    0.0000 C   0  0  0  0  0  0  0  0  0  0  0  0
   -3.3473    2.6664    0.0000 N   0  0  0  0  0  0  0  0  0  0  0  0
   -3.6022    1.8818    0.0000 N   0  0  0  0  0  0  0  0  0  0  0  0
   -2.9348    1.3969    0.0000 C   0  0  0  0  0  0  0  0  0  0  0  0
   -2.2673    1.8818    0.0000 C   0  0  0  0  0  0  0  0  0  0  0  0
   -2.5223    2.6664    0.0000 C   0  0  0  0  0  0  0  0  0  0  0  0
   -1.9702    3.2795    0.0000 C   0  0  0  0  0  0  0  0  0  0  0  0
   -1.1633    3.1080    0.0000 C   0  0  0  0  0  0  0  0  0  0  0  0
   -0.9083    2.3234    0.0000 C   0  0  0  0  0  0  0  0  0  0  0  0
   -1.4604    1.7103    0.0000 C   0  0  0  0  0  0  0  0  0  0  0  0
   -1.2054    0.9256    0.0000 N   0  0  0  0  0  0  0  0  0  0  0  0
   -0.3984    0.7541    0.0000 C   0  0  0  0  0  0  0  0  0  0  0  0
    0.1536    1.3672    0.0000 O   0  0  0  0  0  0  0  0  0  0  0  0
   -0.1435   -0.0305    0.0000 C   0  0  0  0  0  0  0  0  0  0  0  0
   -0.6284   -0.6979    0.0000 N   0  0  0  0  0  0  0  0  0  0  0  0
   -0.1435   -1.3654    0.0000 O   0  0  0  0  0  0  0  0  0  0  0  0
    0.6411   -1.1104    0.0000 C   0  0  0  0  0  0  0  0  0  0  0  0
    0.6411   -0.2854    0.0000 C   0  0  0  0  0  0  0  0  0  0  0  0
    1.3556    0.1271    0.0000 C   0  0  0  0  0  0  0  0  0  0  0  0
    2.0701   -0.2854    0.0000 C   0  0  0  0  0  0  0  0  0  0  0  0
    2.0701   -1.1104    0.0000 C   0  0  0  0  0  0  0  0  0  0  0  0
    1.3556   -1.5229    0.0000 C   0  0  0  0  0  0  0  0  0  0  0  0
   -4.6527    3.2476    0.0000 C   0  0  0  0  0  0  0  0  0  0  0  0
   -4.9882    2.4939    0.0000 C   0  0  0  0  0  0  0  0  0  0  0  0
  1  2  1  0  0  0  0
  2  3  4  0  0  0  0
  3  4  4  0  0  0  0
  4  5  4  0  0  0  0
  5  6  4  0  0  0  0
  6  7  1  0  0  0  0
  7  8  4  0  0  0  0
  8  9  4  0  0  0  0
  9 10  4  0  0  0  0
 10 11  4  0  0  0  0
  7 11  4  0  0  0  0
 11 12  1  0  0  0  0
 12 13  1  0  0  0  0
 13 14  1  0  0  0  0
 14 15  1  0  0  0  0
 10 15  1  0  0  0  0
 15 16  1  0  0  0  0
 16 17  1  0  0  0  0
 17 18  2  0  0  0  0
 17 19  1  0  0  0  0
 19 20  4  0  0  0  0
 20 21  4  0  0  0  0
 21 22  4  0  0  0  0
 22 23  4  0  0  0  0
 19 23  4  0  0  0  0
 23 24  1  0  0  0  0
 24 25  1  0  0  0  0
 25 26  1  0  0  0  0
 26 27  1  0  0  0  0
 22 27  1  0  0  0  0
  6 28  4  0  0  0  0
  2 28  4  0  0  0  0
 28 29  1  0  0  0  0
M  END
> <IC50(uM)>
0.003025

> <Outcome>
1.0

> <BindingDB ID>
51334974; 51334959; 993099

> <BindingDB MonomerID>
477601

> <BindingDB Ligand Name>
N-[1-(2,3-dimethylphenyl)-4,5,6,7-tetrahydro-1H-indazol-4-yl]-4,5,6,7-tetrahydro-1,2-benzoxazole-3-carboxamide::US10889564, Example 31

> <Curation/DataSource>
ChEMBL; US Patent

> <Article DOI>
10.1021/acs.jmedchem.9b01658; ?

> <PMID>
32212728; ?

> <Patent Number>
?; US10889564

> <Authors>
Popova, G; Ladds, MJGW; Johansson, L; Saleh, A; Larsson, J; Sandberg, L; Sahlberg, SH; Qian, W; Gullberg, H; Garg, N; Gustavsson, AL; Haraldsson, M; Lane, D; Yngve, U; Lain, S; Lain, S; Drummond, C; Leeuwen, IV; Haraldsson, M; Johansson, L; Sandberg, L; Yngve, U

> <Link to Ligand in BindingDB>
http://www.bindingdb.org/bind/chemsearch/marvin/MolStructure.jsp?monomerid=477601

> <Link to Ligand-Target Pair in BindingDB>
http://www.bindingdb.org/jsp/dbsearch/PrimarySearch_ki.jsp?energyterm=kJ/mole&tag=r21&monomerid=477601&enzyme=Dihydroorotate+dehydrogenase&column=ki&startPg=0&Increment=50&submit=Search

> <PubChem CID>
129126994

> <PubChem SID>
442137218

$$$$

  Mrv2115 07222212352D          

 22 24  0  0  0  0            999 V2000
    1.4289   -2.4750    0.0000 C   0  0  0  0  0  0  0  0  0  0  0  0
    1.4289   -1.6500    0.0000 C   0  0  0  0  0  0  0  0  0  0  0  0
    0.7145   -1.2375    0.0000 C   0  0  0  0  0  0  0  0  0  0  0  0
    0.7145   -0.4125    0.0000 C   0  0  0  0  0  0  0  0  0  0  0  0
    1.4289    0.0000    0.0000 C   0  0  0  0  0  0  0  0  0  0  0  0
    2.1434   -0.4125    0.0000 C   0  0  0  0  0  0  0  0  0  0  0  0
    2.8579    0.0000    0.0000 C   0  0  0  0  0  0  0  0  0  0  0  0
    2.8579    0.8250    0.0000 C   0  0  0  0  0  0  0  0  0  0  0  0
    3.5724    1.2375    0.0000 O   0  0  0  0  0  0  0  0  0  0  0  0
    2.1434    1.2375    0.0000 O   0  0  0  0  0  0  0  0  0  0  0  0
    3.5724   -0.4125    0.0000 C   0  0  0  0  0  0  0  0  0  0  0  0
    4.2868   -0.0000    0.0000 O   0  0  0  0  0  0  0  0  0  0  0  0
    3.5724   -1.2375    0.0000 C   0  0  0  0  0  0  0  0  0  0  0  0
    4.2868   -1.6500    0.0000 C   0  0  0  0  0  0  0  0  0  0  0  0
    5.0013   -1.2375    0.0000 C   0  0  0  0  0  0  0  0  0  0  0  0
    5.7158   -1.6500    0.0000 C   0  0  0  0  0  0  0  0  0  0  0  0
    5.7158   -2.4750    0.0000 C   0  0  0  0  0  0  0  0  0  0  0  0
    6.4302   -2.8875    0.0000 Cl  0  0  0  0  0  0  0  0  0  0  0  0
    5.0013   -2.8875    0.0000 C   0  0  0  0  0  0  0  0  0  0  0  0
    4.2868   -2.4750    0.0000 C   0  0  0  0  0  0  0  0  0  0  0  0
    2.8579   -1.6500    0.0000 N   0  0  0  0  0  0  0  0  0  0  0  0
    2.1434   -1.2375    0.0000 C   0  0  0  0  0  0  0  0  0  0  0  0
  1  2  1  0  0  0  0
  2  3  4  0  0  0  0
  3  4  4  0  0  0  0
  4  5  4  0  0  0  0
  5  6  4  0  0  0  0
  6  7  4  0  0  0  0
  7  8  1  0  0  0  0
  8  9  2  0  0  0  0
  8 10  1  0  0  0  0
  7 11  4  0  0  0  0
 11 12  1  0  0  0  0
 11 13  4  0  0  0  0
 13 14  1  0  0  0  0
 14 15  4  0  0  0  0
 15 16  4  0  0  0  0
 16 17  4  0  0  0  0
 17 18  1  0  0  0  0
 17 19  4  0  0  0  0
 19 20  4  0  0  0  0
 14 20  4  0  0  0  0
 13 21  4  0  0  0  0
 21 22  4  0  0  0  0
  2 22  4  0  0  0  0
  6 22  4  0  0  0  0
M  END
> <IC50(uM)>
212.0

> <Outcome>
0.0

> <BindingDB ID>
50841854

> <BindingDB MonomerID>
50201893

> <BindingDB Ligand Name>
2-(4-chlorophenyl)-3-hydroxy-8-methylquinoline-4-carboxylicacid::CHEMBL375815

> <Curation/DataSource>
ChEMBL

> <Article DOI>
10.1021/jm0602256

> <PMID>
17201408

> <Patent Number>
?

> <Authors>
Kaila, N; Janz, K; DeBernardo, S; Bedard, PW; Camphausen, RT; Tam, S; Tsao, DH; Keith, JC; Nickerson-Nutter, C; Shilling, A; Young-Sciame, R; Wang, Q

> <Link to Ligand in BindingDB>
http://www.bindingdb.org/bind/chemsearch/marvin/MolStructure.jsp?monomerid=50201893

> <Link to Ligand-Target Pair in BindingDB>
http://www.bindingdb.org/jsp/dbsearch/PrimarySearch_ki.jsp?energyterm=kJ/mole&tag=r21&monomerid=50201893&enzyme=Dihydroorotate+dehydrogenase&column=ki&startPg=0&Increment=50&submit=Search

> <PubChem CID>
16099916

> <PubChem SID>
104081544

$$$$

  Mrv2115 07222212352D          

 35 38  0  0  0  0            999 V2000
   -5.2708    1.4423    0.0000 C   0  0  0  0  0  0  0  0  0  0  0  0
   -4.4458    1.4423    0.0000 C   0  0  0  0  0  0  0  0  0  0  0  0
   -4.0333    2.1568    0.0000 C   0  0  0  0  0  0  0  0  0  0  0  0
   -3.2083    2.1568    0.0000 C   0  0  0  0  0  0  0  0  0  0  0  0
   -2.7958    1.4423    0.0000 C   0  0  0  0  0  0  0  0  0  0  0  0
   -3.2083    0.7279    0.0000 C   0  0  0  0  0  0  0  0  0  0  0  0
   -4.0333    0.7279    0.0000 C   0  0  0  0  0  0  0  0  0  0  0  0
   -4.4458    0.0134    0.0000 N   0  0  0  0  0  0  0  0  0  0  0  0
   -4.0333   -0.7011    0.0000 C   0  0  0  0  0  0  0  0  0  0  0  0
   -4.4458   -1.4156    0.0000 O   0  0  0  0  0  0  0  0  0  0  0  0
   -3.2083   -0.7011    0.0000 C   0  0  0  0  0  0  0  0  0  0  0  0
   -2.7958    0.0134    0.0000 C   0  0  0  0  0  0  0  0  0  0  0  0
   -1.9708    0.0134    0.0000 C   0  0  0  0  0  0  0  0  0  0  0  0
   -1.5583    0.7279    0.0000 F   0  0  0  0  0  0  0  0  0  0  0  0
   -1.5583   -0.7011    0.0000 C   0  0  0  0  0  0  0  0  0  0  0  0
   -0.7333   -0.7011    0.0000 N   0  0  0  0  0  0  0  0  0  0  0  0
   -0.2483   -1.3685    0.0000 N   0  0  0  0  0  0  0  0  0  0  0  0
    0.5363   -1.1136    0.0000 C   0  0  0  0  0  0  0  0  0  0  0  0
    0.5363   -0.2886    0.0000 N   0  0  0  0  0  0  0  0  0  0  0  0
   -0.2483   -0.0336    0.0000 C   0  0  0  0  0  0  0  0  0  0  0  0
   -0.5033    0.7510    0.0000 O   0  0  0  0  0  0  0  0  0  0  0  0
    1.1813    0.2258    0.0000 C   0  0  0  0  0  0  0  0  0  0  0  0
    1.9856    0.0422    0.0000 C   0  0  0  0  0  0  0  0  0  0  0  0
    2.3436   -0.7011    0.0000 C   0  0  0  0  0  0  0  0  0  0  0  0
    1.9856   -1.4444    0.0000 O   0  0  0  0  0  0  0  0  0  0  0  0
    1.1813   -1.6280    0.0000 C   0  0  0  0  0  0  0  0  0  0  0  0
   -1.9708   -1.4156    0.0000 C   0  0  0  0  0  0  0  0  0  0  0  0
   -2.7958   -1.4156    0.0000 C   0  0  0  0  0  0  0  0  0  0  0  0
   -3.2083   -2.1300    0.0000 O   0  0  0  0  0  0  0  0  0  0  0  0
   -2.7958   -2.8445    0.0000 C   0  0  0  0  0  0  0  0  0  0  0  0
   -1.9708   -2.8445    0.0000 C   0  0  0  0  0  0  0  0  0  0  0  0
   -3.2083   -3.5590    0.0000 C   0  0  0  0  0  0  0  0  0  0  0  0
   -3.9227   -3.1465    0.0000 F   0  0  0  0  0  0  0  0  0  0  0  0
   -2.4938   -3.9715    0.0000 F   0  0  0  0  0  0  0  0  0  0  0  0
   -3.6208   -4.2734    0.0000 F   0  0  0  0  0  0  0  0  0  0  0  0
  1  2  1  0  0  0  0
  2  3  4  0  0  0  0
  3  4  4  0  0  0  0
  4  5  4  0  0  0  0
  5  6  4  0  0  0  0
  6  7  4  0  0  0  0
  2  7  4  0  0  0  0
  7  8  1  0  0  0  0
  8  9  1  0  0  0  0
  9 10  2  0  0  0  0
  9 11  1  0  0  0  0
 11 12  4  0  0  0  0
 12 13  4  0  0  0  0
 13 14  1  0  0  0  0
 13 15  4  0  0  0  0
 15 16  1  0  0  0  0
 16 17  4  0  0  0  0
 17 18  4  0  0  0  0
 18 19  4  0  0  0  0
 19 20  4  0  0  0  0
 16 20  4  0  0  0  0
 20 21  2  0  0  0  0
 19 22  1  0  0  0  0
 22 23  1  0  0  0  0
 23 24  1  0  0  0  0
 24 25  1  0  0  0  0
 25 26  1  0  0  0  0
 18 26  1  0  0  0  0
 15 27  4  0  0  0  0
 27 28  4  0  0  0  0
 11 28  4  0  0  0  0
 28 29  1  0  0  0  0
 29 30  1  0  0  0  0
 30 31  1  0  0  0  0
 30 32  1  0  0  0  0
 32 33  1  0  0  0  0
 32 34  1  0  0  0  0
 32 35  1  0  0  0  0
M  END
> <IC50(uM)>
0.018

> <Outcome>
1.0

> <BindingDB ID>
1020629

> <BindingDB MonomerID>
490558

> <BindingDB Ligand Name>
5-fluoro-N-(2-methylphenyl)-4-(3-oxo-6,7-dihydro-3H,5H-[1,2,4]triazolo[3,4-c][1,4]oxazepin-2(9H)-yl)-2-{[(2S)-1,1,1-trifluoropropan-2-yl]oxy}benzamide::US10968216, Example 226

> <Curation/DataSource>
US Patent

> <Article DOI>
?

> <PMID>
?

> <Patent Number>
US10968216

> <Authors>
Gradl, SN; Nguyen, D; Eis, K; Gunther, J; Stellfeld, T; Janzer, A; Christian, S; Mueller, T; Sheikh, SE; Zhou, HJ; Zhao, C; Sykes, DB; Ferrara, SJ; Liu, K; Herbert, SA; Merz, C; Niehues, M; Nising, CF; Schafer, M; Zimmermann, K; Knablein, J; Thede, K; Faupel, T

> <Link to Ligand in BindingDB>
http://www.bindingdb.org/bind/chemsearch/marvin/MolStructure.jsp?monomerid=490558

> <Link to Ligand-Target Pair in BindingDB>
http://www.bindingdb.org/jsp/dbsearch/PrimarySearch_ki.jsp?energyterm=kJ/mole&tag=r21&monomerid=490558&enzyme=Dihydroorotate+dehydrogenase&column=ki&startPg=0&Increment=50&submit=Search

> <PubChem CID>
134474148

> <PubChem SID>
447117284

$$$$

  Mrv2115 07222212352D          

 20 22  0  0  0  0            999 V2000
   -2.0412    3.6394    0.0000 C   0  0  0  0  0  0  0  0  0  0  0  0
   -1.8696    4.4464    0.0000 N   0  0  0  0  0  0  0  0  0  0  0  0
   -2.4827    4.9984    0.0000 C   0  0  0  0  0  0  0  0  0  0  0  0
   -1.0850    4.7013    0.0000 C   0  0  0  0  0  0  0  0  0  0  0  0
   -0.9135    5.5083    0.0000 C   0  0  0  0  0  0  0  0  0  0  0  0
   -0.1289    5.7632    0.0000 C   0  0  0  0  0  0  0  0  0  0  0  0
    0.4842    5.2112    0.0000 C   0  0  0  0  0  0  0  0  0  0  0  0
    1.2688    5.4661    0.0000 N   0  0  0  0  0  0  0  0  0  0  0  0
    1.8819    4.9141    0.0000 C   0  0  0  0  0  0  0  0  0  0  0  0
    1.7104    4.1071    0.0000 S   0  0  0  0  0  0  0  0  0  0  0  0
    2.6666    5.1690    0.0000 C   0  0  0  0  0  0  0  0  0  0  0  0
    2.9215    5.9537    0.0000 C   0  0  0  0  0  0  0  0  0  0  0  0
    3.7465    5.9537    0.0000 N   0  0  0  0  0  0  0  0  0  0  0  0
    4.0014    5.1690    0.0000 O   0  0  0  0  0  0  0  0  0  0  0  0
    3.3340    4.6841    0.0000 C   0  0  0  0  0  0  0  0  0  0  0  0
    3.3340    3.8591    0.0000 C   0  0  0  0  0  0  0  0  0  0  0  0
    3.7465    3.1446    0.0000 C   0  0  0  0  0  0  0  0  0  0  0  0
    2.9215    3.1446    0.0000 C   0  0  0  0  0  0  0  0  0  0  0  0
    0.3127    4.4042    0.0000 C   0  0  0  0  0  0  0  0  0  0  0  0
   -0.4719    4.1493    0.0000 C   0  0  0  0  0  0  0  0  0  0  0  0
  1  2  1  0  0  0  0
  2  3  1  0  0  0  0
  2  4  1  0  0  0  0
  4  5  4  0  0  0  0
  5  6  4  0  0  0  0
  6  7  4  0  0  0  0
  7  8  1  0  0  0  0
  8  9  1  0  0  0  0
  9 10  2  0  0  0  0
  9 11  1  0  0  0  0
 11 12  4  0  0  0  0
 12 13  4  0  0  0  0
 13 14  4  0  0  0  0
 14 15  4  0  0  0  0
 11 15  4  0  0  0  0
 15 16  1  0  0  0  0
 16 17  1  0  0  0  0
 17 18  1  0  0  0  0
 16 18  1  0  0  0  0
  7 19  4  0  0  0  0
 19 20  4  0  0  0  0
  4 20  4  0  0  0  0
M  END
> <IC50(uM)>
50.0

> <Outcome>
0.0

> <BindingDB ID>
50123313

> <BindingDB MonomerID>
50071407

> <BindingDB Ligand Name>
5-Cyclopropyl-isoxazole-4-carbothioic acid (4-dimethylamino-phenyl)-amide::CHEMBL307768

> <Curation/DataSource>
ChEMBL

> <Article DOI>
10.1016/s0960-894x(98)00365-5

> <PMID>
9873513

> <Patent Number>
?

> <Authors>
Albert, R; Knecht, H; Andersen, E; Hungerford, V; Schreier, MH; Papageorgiou, C

> <Link to Ligand in BindingDB>
http://www.bindingdb.org/bind/chemsearch/marvin/MolStructure.jsp?monomerid=50071407

> <Link to Ligand-Target Pair in BindingDB>
http://www.bindingdb.org/jsp/dbsearch/PrimarySearch_ki.jsp?energyterm=kJ/mole&tag=r21&monomerid=50071407&enzyme=Dihydroorotate+dehydrogenase&column=ki&startPg=0&Increment=50&submit=Search

> <PubChem CID>
44310624

> <PubChem SID>
103965161

$$$$

  Mrv2115 07222212352D          

 36 39  0  0  0  0            999 V2000
   -1.8659    1.4455    0.0000 C   0  0  0  0  0  0  0  0  0  0  0  0
   -2.6909    1.4455    0.0000 C   0  0  0  0  0  0  0  0  0  0  0  0
   -3.1034    0.7310    0.0000 O   0  0  0  0  0  0  0  0  0  0  0  0
   -2.6909    0.0165    0.0000 C   0  0  0  0  0  0  0  0  0  0  0  0
   -1.8659    0.0165    0.0000 C   0  0  0  0  0  0  0  0  0  0  0  0
   -1.4534   -0.6979    0.0000 C   0  0  0  0  0  0  0  0  0  0  0  0
   -0.6284   -0.6979    0.0000 N   0  0  0  0  0  0  0  0  0  0  0  0
   -0.1435   -1.3654    0.0000 N   0  0  0  0  0  0  0  0  0  0  0  0
    0.6411   -1.1104    0.0000 C   0  0  0  0  0  0  0  0  0  0  0  0
    0.6411   -0.2854    0.0000 N   0  0  0  0  0  0  0  0  0  0  0  0
   -0.1435   -0.0305    0.0000 C   0  0  0  0  0  0  0  0  0  0  0  0
   -0.3984    0.7541    0.0000 O   0  0  0  0  0  0  0  0  0  0  0  0
    1.3556    0.1271    0.0000 C   0  0  0  0  0  0  0  0  0  0  0  0
    2.0701   -0.2854    0.0000 C   0  0  0  0  0  0  0  0  0  0  0  0
    2.0701   -1.1104    0.0000 C   0  0  0  0  0  0  0  0  0  0  0  0
    1.3556   -1.5229    0.0000 C   0  0  0  0  0  0  0  0  0  0  0  0
   -1.8659   -1.4124    0.0000 C   0  0  0  0  0  0  0  0  0  0  0  0
   -1.4534   -2.1269    0.0000 F   0  0  0  0  0  0  0  0  0  0  0  0
   -2.6909   -1.4124    0.0000 C   0  0  0  0  0  0  0  0  0  0  0  0
   -3.1034   -0.6979    0.0000 C   0  0  0  0  0  0  0  0  0  0  0  0
   -3.9284   -0.6979    0.0000 C   0  0  0  0  0  0  0  0  0  0  0  0
   -4.3409    0.0165    0.0000 O   0  0  0  0  0  0  0  0  0  0  0  0
   -4.3409   -1.4124    0.0000 N   0  0  0  0  0  0  0  0  0  0  0  0
   -5.1659   -1.4124    0.0000 C   0  0  0  0  0  0  0  0  0  0  0  0
   -5.5784   -0.6979    0.0000 C   0  0  0  0  0  0  0  0  0  0  0  0
   -6.4034   -0.6979    0.0000 C   0  0  0  0  0  0  0  0  0  0  0  0
   -6.8159   -1.4124    0.0000 C   0  0  0  0  0  0  0  0  0  0  0  0
   -6.4034   -2.1269    0.0000 C   0  0  0  0  0  0  0  0  0  0  0  0
   -5.5784   -2.1269    0.0000 C   0  0  0  0  0  0  0  0  0  0  0  0
   -5.1659   -2.8414    0.0000 C   0  0  0  0  0  0  0  0  0  0  0  0
   -5.5784   -3.5558    0.0000 F   0  0  0  0  0  0  0  0  0  0  0  0
   -4.3409   -2.8414    0.0000 F   0  0  0  0  0  0  0  0  0  0  0  0
   -3.1034    2.1599    0.0000 C   0  0  0  0  0  0  0  0  0  0  0  0
   -2.3890    2.5724    0.0000 F   0  0  0  0  0  0  0  0  0  0  0  0
   -3.8179    1.7474    0.0000 F   0  0  0  0  0  0  0  0  0  0  0  0
   -3.5159    2.8744    0.0000 F   0  0  0  0  0  0  0  0  0  0  0  0
  1  2  1  0  0  0  0
  2  3  1  0  0  0  0
  3  4  1  0  0  0  0
  4  5  4  0  0  0  0
  5  6  4  0  0  0  0
  6  7  1  0  0  0  0
  7  8  4  0  0  0  0
  8  9  4  0  0  0  0
  9 10  4  0  0  0  0
 10 11  4  0  0  0  0
  7 11  4  0  0  0  0
 11 12  2  0  0  0  0
 10 13  1  0  0  0  0
 13 14  1  0  0  0  0
 14 15  1  0  0  0  0
 15 16  1  0  0  0  0
  9 16  1  0  0  0  0
  6 17  4  0  0  0  0
 17 18  1  0  0  0  0
 17 19  4  0  0  0  0
 19 20  4  0  0  0  0
  4 20  4  0  0  0  0
 20 21  1  0  0  0  0
 21 22  2  0  0  0  0
 21 23  1  0  0  0  0
 23 24  1  0  0  0  0
 24 25  4  0  0  0  0
 25 26  4  0  0  0  0
 26 27  4  0  0  0  0
 27 28  4  0  0  0  0
 28 29  4  0  0  0  0
 24 29  4  0  0  0  0
 29 30  1  0  0  0  0
 30 31  1  0  0  0  0
 30 32  1  0  0  0  0
  2 33  1  0  0  0  0
 33 34  1  0  0  0  0
 33 35  1  0  0  0  0
 33 36  1  0  0  0  0
M  END
> <IC50(uM)>
0.00725

> <Outcome>
1.0

> <BindingDB ID>
1020414

> <BindingDB MonomerID>
490365

> <BindingDB Ligand Name>
N-[2-(difluoromethyl)phenyl]-5-fluoro-4-(3-oxo-5,6,7,8-tetrahydro[1,2,4]triazolo[4,3-a]pyridin-2(3H)-yl)-2-{[(2S)-1,1,1-trifluoropropan-2-yl]oxy}benzamide::US10968216, Example 33

> <Curation/DataSource>
US Patent

> <Article DOI>
?

> <PMID>
?

> <Patent Number>
US10968216

> <Authors>
Gradl, SN; Nguyen, D; Eis, K; Gunther, J; Stellfeld, T; Janzer, A; Christian, S; Mueller, T; Sheikh, SE; Zhou, HJ; Zhao, C; Sykes, DB; Ferrara, SJ; Liu, K; Herbert, SA; Merz, C; Niehues, M; Nising, CF; Schafer, M; Zimmermann, K; Knablein, J; Thede, K; Faupel, T

> <Link to Ligand in BindingDB>
http://www.bindingdb.org/bind/chemsearch/marvin/MolStructure.jsp?monomerid=490365

> <Link to Ligand-Target Pair in BindingDB>
http://www.bindingdb.org/jsp/dbsearch/PrimarySearch_ki.jsp?energyterm=kJ/mole&tag=r21&monomerid=490365&enzyme=Dihydroorotate+dehydrogenase&column=ki&startPg=0&Increment=50&submit=Search

> <PubChem CID>
134474315

> <PubChem SID>
447117092

$$$$

  Mrv2115 07222212352D          

 36 39  0  0  0  0            999 V2000
   -3.1034    3.5889    0.0000 C   0  0  0  0  0  0  0  0  0  0  0  0
   -2.6909    2.8744    0.0000 O   0  0  0  0  0  0  0  0  0  0  0  0
   -3.1034    2.1599    0.0000 C   0  0  0  0  0  0  0  0  0  0  0  0
   -3.9284    2.1599    0.0000 C   0  0  0  0  0  0  0  0  0  0  0  0
   -4.3409    1.4455    0.0000 C   0  0  0  0  0  0  0  0  0  0  0  0
   -5.1659    1.4455    0.0000 C   0  0  0  0  0  0  0  0  0  0  0  0
   -3.9284    0.7310    0.0000 C   0  0  0  0  0  0  0  0  0  0  0  0
   -4.3409    0.0165    0.0000 N   0  0  0  0  0  0  0  0  0  0  0  0
   -3.9284   -0.6979    0.0000 C   0  0  0  0  0  0  0  0  0  0  0  0
   -4.3409   -1.4124    0.0000 O   0  0  0  0  0  0  0  0  0  0  0  0
   -3.1034   -0.6979    0.0000 C   0  0  0  0  0  0  0  0  0  0  0  0
   -2.6909    0.0165    0.0000 C   0  0  0  0  0  0  0  0  0  0  0  0
   -1.8659    0.0165    0.0000 C   0  0  0  0  0  0  0  0  0  0  0  0
   -1.4534    0.7310    0.0000 F   0  0  0  0  0  0  0  0  0  0  0  0
   -1.4534   -0.6979    0.0000 C   0  0  0  0  0  0  0  0  0  0  0  0
   -0.6284   -0.6979    0.0000 N   0  0  0  0  0  0  0  0  0  0  0  0
   -0.1435   -1.3654    0.0000 N   0  0  0  0  0  0  0  0  0  0  0  0
    0.6411   -1.1104    0.0000 C   0  0  0  0  0  0  0  0  0  0  0  0
    0.6411   -0.2854    0.0000 N   0  0  0  0  0  0  0  0  0  0  0  0
   -0.1435   -0.0305    0.0000 C   0  0  0  0  0  0  0  0  0  0  0  0
   -0.3984    0.7541    0.0000 O   0  0  0  0  0  0  0  0  0  0  0  0
    1.3556    0.1271    0.0000 C   0  0  0  0  0  0  0  0  0  0  0  0
    2.0701   -0.2854    0.0000 C   0  0  0  0  0  0  0  0  0  0  0  0
    2.0701   -1.1104    0.0000 C   0  0  0  0  0  0  0  0  0  0  0  0
    1.3556   -1.5229    0.0000 C   0  0  0  0  0  0  0  0  0  0  0  0
   -1.8659   -1.4124    0.0000 C   0  0  0  0  0  0  0  0  0  0  0  0
   -2.6909   -1.4124    0.0000 C   0  0  0  0  0  0  0  0  0  0  0  0
   -3.1034   -2.1269    0.0000 O   0  0  0  0  0  0  0  0  0  0  0  0
   -2.6909   -2.8414    0.0000 C   0  0  0  0  0  0  0  0  0  0  0  0
   -1.8659   -2.8414    0.0000 C   0  0  0  0  0  0  0  0  0  0  0  0
   -3.1034   -3.5558    0.0000 C   0  0  0  0  0  0  0  0  0  0  0  0
   -3.8179   -3.1433    0.0000 F   0  0  0  0  0  0  0  0  0  0  0  0
   -2.3890   -3.9683    0.0000 F   0  0  0  0  0  0  0  0  0  0  0  0
   -3.5159   -4.2703    0.0000 F   0  0  0  0  0  0  0  0  0  0  0  0
   -3.1034    0.7310    0.0000 C   0  0  0  0  0  0  0  0  0  0  0  0
   -2.6909    1.4455    0.0000 N   0  0  0  0  0  0  0  0  0  0  0  0
  1  2  1  0  0  0  0
  2  3  1  0  0  0  0
  3  4  4  0  0  0  0
  4  5  4  0  0  0  0
  5  6  1  0  0  0  0
  5  7  4  0  0  0  0
  7  8  1  0  0  0  0
  8  9  1  0  0  0  0
  9 10  2  0  0  0  0
  9 11  1  0  0  0  0
 11 12  4  0  0  0  0
 12 13  4  0  0  0  0
 13 14  1  0  0  0  0
 13 15  4  0  0  0  0
 15 16  1  0  0  0  0
 16 17  4  0  0  0  0
 17 18  4  0  0  0  0
 18 19  4  0  0  0  0
 19 20  4  0  0  0  0
 16 20  4  0  0  0  0
 20 21  2  0  0  0  0
 19 22  1  0  0  0  0
 22 23  1  0  0  0  0
 23 24  1  0  0  0  0
 24 25  1  0  0  0  0
 18 25  1  0  0  0  0
 15 26  4  0  0  0  0
 26 27  4  0  0  0  0
 11 27  4  0  0  0  0
 27 28  1  0  0  0  0
 28 29  1  0  0  0  0
 29 30  1  0  0  0  0
 29 31  1  0  0  0  0
 31 32  1  0  0  0  0
 31 33  1  0  0  0  0
 31 34  1  0  0  0  0
  7 35  4  0  0  0  0
 35 36  4  0  0  0  0
  3 36  4  0  0  0  0
M  END
> <IC50(uM)>
0.054299999999999994

> <Outcome>
1.0

> <BindingDB ID>
1020436

> <BindingDB MonomerID>
490387

> <BindingDB Ligand Name>
5-fluoro-N-(6-methoxy-4-methylpyridin-3-yl)-4-(3-oxo-5,6,7,8-tetrahydro[1,2,4]triazolo[4,3-a]pyridin-2(3H)-yl)-2-{[(2S)-1,1,1-trifluoropropan-2-yl]oxy}benzamide::US10968216, Example 55

> <Curation/DataSource>
US Patent

> <Article DOI>
?

> <PMID>
?

> <Patent Number>
US10968216

> <Authors>
Gradl, SN; Nguyen, D; Eis, K; Gunther, J; Stellfeld, T; Janzer, A; Christian, S; Mueller, T; Sheikh, SE; Zhou, HJ; Zhao, C; Sykes, DB; Ferrara, SJ; Liu, K; Herbert, SA; Merz, C; Niehues, M; Nising, CF; Schafer, M; Zimmermann, K; Knablein, J; Thede, K; Faupel, T

> <Link to Ligand in BindingDB>
http://www.bindingdb.org/bind/chemsearch/marvin/MolStructure.jsp?monomerid=490387

> <Link to Ligand-Target Pair in BindingDB>
http://www.bindingdb.org/jsp/dbsearch/PrimarySearch_ki.jsp?energyterm=kJ/mole&tag=r21&monomerid=490387&enzyme=Dihydroorotate+dehydrogenase&column=ki&startPg=0&Increment=50&submit=Search

> <PubChem CID>
134474105

> <PubChem SID>
447117114

$$$$

  Mrv2115 07222212352D          

 27 30  0  0  0  0            999 V2000
    5.4957    5.6479    0.0000 C   0  0  0  0  0  0  0  0  0  0  0  0
    5.4957    4.8229    0.0000 O   0  0  0  0  0  0  0  0  0  0  0  0
    6.2102    4.4104    0.0000 C   0  0  0  0  0  0  0  0  0  0  0  0
    6.9246    4.8229    0.0000 C   0  0  0  0  0  0  0  0  0  0  0  0
    7.6391    4.4104    0.0000 C   0  0  0  0  0  0  0  0  0  0  0  0
    7.6391    3.5854    0.0000 C   0  0  0  0  0  0  0  0  0  0  0  0
    6.9246    3.1729    0.0000 C   0  0  0  0  0  0  0  0  0  0  0  0
    6.2102    3.5854    0.0000 C   0  0  0  0  0  0  0  0  0  0  0  0
    5.4957    3.1729    0.0000 C   0  0  0  0  0  0  0  0  0  0  0  0
    5.4957    2.3479    0.0000 C   0  0  0  0  0  0  0  0  0  0  0  0
    4.7812    1.9354    0.0000 C   0  0  0  0  0  0  0  0  0  0  0  0
    4.0668    2.3479    0.0000 C   0  0  0  0  0  0  0  0  0  0  0  0
    3.3523    1.9354    0.0000 C   0  0  0  0  0  0  0  0  0  0  0  0
    3.3523    1.1104    0.0000 C   0  0  0  0  0  0  0  0  0  0  0  0
    2.6378    0.6979    0.0000 C   0  0  0  0  0  0  0  0  0  0  0  0
    2.6378   -0.1271    0.0000 C   0  0  0  0  0  0  0  0  0  0  0  0
    1.9233   -0.5396    0.0000 O   0  0  0  0  0  0  0  0  0  0  0  0
    3.3523   -0.5396    0.0000 O   0  0  0  0  0  0  0  0  0  0  0  0
    1.9233    1.1104    0.0000 C   0  0  0  0  0  0  0  0  0  0  0  0
    1.1387    0.8555    0.0000 N   0  0  0  0  0  0  0  0  0  0  0  0
    0.6538    1.5229    0.0000 C   0  0  0  0  0  0  0  0  0  0  0  0
   -0.1712    1.5229    0.0000 C   0  0  0  0  0  0  0  0  0  0  0  0
    1.1387    2.1904    0.0000 N   0  0  0  0  0  0  0  0  0  0  0  0
    1.9233    1.9354    0.0000 C   0  0  0  0  0  0  0  0  0  0  0  0
    2.6378    2.3479    0.0000 C   0  0  0  0  0  0  0  0  0  0  0  0
    4.0668    3.1729    0.0000 C   0  0  0  0  0  0  0  0  0  0  0  0
    4.7812    3.5854    0.0000 C   0  0  0  0  0  0  0  0  0  0  0  0
  1  2  1  0  0  0  0
  2  3  1  0  0  0  0
  3  4  4  0  0  0  0
  4  5  4  0  0  0  0
  5  6  4  0  0  0  0
  6  7  4  0  0  0  0
  7  8  4  0  0  0  0
  3  8  4  0  0  0  0
  8  9  1  0  0  0  0
  9 10  4  0  0  0  0
 10 11  4  0  0  0  0
 11 12  4  0  0  0  0
 12 13  1  0  0  0  0
 13 14  4  0  0  0  0
 14 15  4  0  0  0  0
 15 16  1  0  0  0  0
 16 17  2  0  0  0  0
 16 18  1  0  0  0  0
 15 19  4  0  0  0  0
 19 20  4  0  0  0  0
 20 21  4  0  0  0  0
 21 22  1  0  0  0  0
 21 23  4  0  0  0  0
 23 24  4  0  0  0  0
 19 24  4  0  0  0  0
 24 25  4  0  0  0  0
 13 25  4  0  0  0  0
 12 26  4  0  0  0  0
 26 27  4  0  0  0  0
  9 27  4  0  0  0  0
M  STY  1   1 DAT
M  SAL   1  1  23
M  SDT   1 MRV_IMPLICIT_H                                        
M  SDD   1     0.5304   -0.4125    DR    ALL  0       0  
M  SED   1 IMPL_H1
M  END
> <IC50(uM)>
0.055

> <Outcome>
1.0

> <BindingDB ID>
1045589

> <BindingDB MonomerID>
501647

> <BindingDB Ligand Name>
US11028054, Example 18

> <Curation/DataSource>
US Patent

> <Article DOI>
?

> <PMID>
?

> <Patent Number>
US11028054

> <Authors>
Thunuguntla, SS; Hosahalli, S; Panigrahi, SK; Schwarz, M; Arit, M

> <Link to Ligand in BindingDB>
http://www.bindingdb.org/bind/chemsearch/marvin/MolStructure.jsp?monomerid=501647

> <Link to Ligand-Target Pair in BindingDB>
http://www.bindingdb.org/jsp/dbsearch/PrimarySearch_ki.jsp?energyterm=kJ/mole&tag=r21&monomerid=501647&enzyme=Dihydroorotate+dehydrogenase&column=ki&startPg=0&Increment=50&submit=Search

> <PubChem CID>
?

> <PubChem SID>
?

$$$$

  Mrv2115 07222212352D          

 21 22  0  0  0  0            999 V2000
    1.3222   -0.8866    0.0000 N   0  0  0  0  0  0  0  0  0  0  0  0
    2.0367   -1.2991    0.0000 C   0  0  0  0  0  0  0  0  0  0  0  0
    2.7512   -1.7116    0.0000 C   0  0  0  0  0  0  0  0  0  0  0  0
    3.4656   -1.2991    0.0000 C   0  0  0  0  0  0  0  0  0  0  0  0
    4.1801   -1.7116    0.0000 O   0  0  0  0  0  0  0  0  0  0  0  0
    3.4656   -0.4741    0.0000 N   0  0  0  0  0  0  0  0  0  0  0  0
    4.1801   -0.0616    0.0000 C   0  0  0  0  0  0  0  0  0  0  0  0
    4.1801    0.7634    0.0000 C   0  0  0  0  0  0  0  0  0  0  0  0
    4.8946    1.1759    0.0000 C   0  0  0  0  0  0  0  0  0  0  0  0
    5.6091    0.7634    0.0000 C   0  0  0  0  0  0  0  0  0  0  0  0
    6.3235    1.1759    0.0000 C   0  0  0  0  0  0  0  0  0  0  0  0
    7.0380    1.5884    0.0000 F   0  0  0  0  0  0  0  0  0  0  0  0
    5.9110    1.8904    0.0000 F   0  0  0  0  0  0  0  0  0  0  0  0
    6.7360    0.4614    0.0000 F   0  0  0  0  0  0  0  0  0  0  0  0
    5.6091   -0.0616    0.0000 C   0  0  0  0  0  0  0  0  0  0  0  0
    4.8946   -0.4741    0.0000 C   0  0  0  0  0  0  0  0  0  0  0  0
    2.7512   -2.5366    0.0000 C   0  0  0  0  0  0  0  0  0  0  0  0
    3.4186   -3.0215    0.0000 C   0  0  0  0  0  0  0  0  0  0  0  0
    3.1637   -3.8062    0.0000 C   0  0  0  0  0  0  0  0  0  0  0  0
    2.3387   -3.8062    0.0000 O   0  0  0  0  0  0  0  0  0  0  0  0
    2.0837   -3.0215    0.0000 C   0  0  0  0  0  0  0  0  0  0  0  0
  1  2  3  0  0  0  0
  2  3  1  0  0  0  0
  3  4  1  0  0  0  0
  4  5  2  0  0  0  0
  4  6  1  0  0  0  0
  6  7  1  0  0  0  0
  7  8  4  0  0  0  0
  8  9  4  0  0  0  0
  9 10  4  0  0  0  0
 10 11  1  0  0  0  0
 11 12  1  0  0  0  0
 11 13  1  0  0  0  0
 11 14  1  0  0  0  0
 10 15  4  0  0  0  0
 15 16  4  0  0  0  0
  7 16  4  0  0  0  0
  3 17  2  0  0  0  0
 17 18  1  0  0  0  0
 18 19  1  0  0  0  0
 19 20  1  0  0  0  0
 20 21  1  0  0  0  0
 17 21  1  0  0  0  0
M  END
> <IC50(uM)>
50.0

> <Outcome>
0.0

> <BindingDB ID>
176945

> <BindingDB MonomerID>
85307

> <BindingDB Ligand Name>
Tetrahydrofuranyl derivative, 7 (E)

> <Curation/DataSource>
Curated from the literature by BindingDB

> <Article DOI>
?

> <PMID>
?

> <Patent Number>
?

> <Authors>
Papagergiou, C; Zurini, M; Weber, HP; Borer, X

> <Link to Ligand in BindingDB>
http://www.bindingdb.org/bind/chemsearch/marvin/MolStructure.jsp?monomerid=85307

> <Link to Ligand-Target Pair in BindingDB>
http://www.bindingdb.org/jsp/dbsearch/PrimarySearch_ki.jsp?energyterm=kJ/mole&tag=r21&monomerid=85307&enzyme=Dihydroorotate+dehydrogenase&column=ki&startPg=0&Increment=50&submit=Search

> <PubChem CID>
57340083

> <PubChem SID>
136351407

$$$$

  Mrv2115 07222212352D          

 17 18  0  0  0  0            999 V2000
    0.3323   -4.5956    0.0000 C   0  0  0  0  0  0  0  0  0  0  0  0
    1.0468   -4.1831    0.0000 C   0  0  0  0  0  0  0  0  0  0  0  0
    1.7613   -4.5956    0.0000 C   0  0  0  0  0  0  0  0  0  0  0  0
    2.4757   -4.1831    0.0000 N   0  0  0  0  0  0  0  0  0  0  0  0
    3.1902   -4.5956    0.0000 C   0  0  0  0  0  0  0  0  0  0  0  0
    3.1902   -5.4206    0.0000 O   0  0  0  0  0  0  0  0  0  0  0  0
    3.9047   -4.1831    0.0000 C   0  0  0  0  0  0  0  0  0  0  0  0
    3.9909   -3.3626    0.0000 C   0  0  0  0  0  0  0  0  0  0  0  0
    4.7979   -3.1911    0.0000 C   0  0  0  0  0  0  0  0  0  0  0  0
    5.2104   -3.9056    0.0000 C   0  0  0  0  0  0  0  0  0  0  0  0
    6.0309   -3.9918    0.0000 N   0  0  0  0  0  0  0  0  0  0  0  0
    6.5158   -3.3244    0.0000 C   0  0  0  0  0  0  0  0  0  0  0  0
    7.3363   -3.4106    0.0000 C   0  0  0  0  0  0  0  0  0  0  0  0
    7.6718   -4.1643    0.0000 C   0  0  0  0  0  0  0  0  0  0  0  0
    7.1869   -4.8317    0.0000 C   0  0  0  0  0  0  0  0  0  0  0  0
    6.3664   -4.7455    0.0000 C   0  0  0  0  0  0  0  0  0  0  0  0
    4.6583   -4.5187    0.0000 S   0  0  0  0  0  0  0  0  0  0  0  0
  1  2  1  0  0  0  0
  2  3  1  0  0  0  0
  3  4  1  0  0  0  0
  4  5  1  0  0  0  0
  5  6  2  0  0  0  0
  5  7  1  0  0  0  0
  7  8  4  0  0  0  0
  8  9  4  0  0  0  0
  9 10  4  0  0  0  0
 10 11  1  0  0  0  0
 11 12  1  0  0  0  0
 12 13  1  0  0  0  0
 13 14  1  0  0  0  0
 14 15  1  0  0  0  0
 15 16  1  0  0  0  0
 11 16  1  0  0  0  0
 10 17  4  0  0  0  0
  7 17  4  0  0  0  0
M  END
> <IC50(uM)>
30.0

> <Outcome>
0.0

> <BindingDB ID>
248385

> <BindingDB MonomerID>
120281

> <BindingDB Ligand Name>
US8703811, 8

> <Curation/DataSource>
US Patent

> <Article DOI>
?

> <PMID>
?

> <Patent Number>
US8703811

> <Authors>
Bastos, C; Booker, ML; Celatka, CA; Clardy, JC; Cortese, J; Patel, VP; Skerlj, R; Wiegand, RC; Wirth, DF

> <Link to Ligand in BindingDB>
http://www.bindingdb.org/bind/chemsearch/marvin/MolStructure.jsp?monomerid=120281

> <Link to Ligand-Target Pair in BindingDB>
http://www.bindingdb.org/jsp/dbsearch/PrimarySearch_ki.jsp?energyterm=kJ/mole&tag=r21&monomerid=120281&enzyme=Dihydroorotate+dehydrogenase&column=ki&startPg=0&Increment=50&submit=Search

> <PubChem CID>
44480858

> <PubChem SID>
220231075

$$$$

  Mrv2115 07222212352D          

 24 26  0  0  0  0            999 V2000
    2.1434   -2.8875    0.0000 C   0  0  0  0  0  0  0  0  0  0  0  0
    2.1434   -3.7125    0.0000 C   0  0  0  0  0  0  0  0  0  0  0  0
    1.4289   -4.1250    0.0000 C   0  0  0  0  0  0  0  0  0  0  0  0
    1.4289   -4.9500    0.0000 C   0  0  0  0  0  0  0  0  0  0  0  0
    2.1434   -5.3625    0.0000 C   0  0  0  0  0  0  0  0  0  0  0  0
    2.1434   -6.1875    0.0000 N   0  0  0  0  0  0  0  0  0  0  0  0
    1.4289   -6.6000    0.0000 C   0  0  0  0  0  0  0  0  0  0  0  0
    1.4289   -7.4250    0.0000 C   0  0  0  0  0  0  0  0  0  0  0  0
    0.7145   -7.8375    0.0000 N   0  0  0  0  0  0  0  0  0  0  0  0
    0.0000   -7.4250    0.0000 C   0  0  0  0  0  0  0  0  0  0  0  0
   -0.7145   -7.8375    0.0000 N   0  0  0  0  0  0  0  0  0  0  0  0
   -0.7145   -8.6625    0.0000 C   0  0  0  0  0  0  0  0  0  0  0  0
   -1.4289   -9.0750    0.0000 C   0  0  0  0  0  0  0  0  0  0  0  0
   -2.1434   -8.6625    0.0000 C   0  0  0  0  0  0  0  0  0  0  0  0
   -2.1434   -7.8375    0.0000 C   0  0  0  0  0  0  0  0  0  0  0  0
   -1.4289   -7.4250    0.0000 C   0  0  0  0  0  0  0  0  0  0  0  0
    0.0000   -6.6000    0.0000 C   0  0  0  0  0  0  0  0  0  0  0  0
   -0.7145   -6.1875    0.0000 C   0  0  0  0  0  0  0  0  0  0  0  0
    0.7145   -6.1875    0.0000 C   0  0  0  0  0  0  0  0  0  0  0  0
    2.8579   -4.9500    0.0000 C   0  0  0  0  0  0  0  0  0  0  0  0
    3.5724   -5.3625    0.0000 C   0  0  0  0  0  0  0  0  0  0  0  0
    4.2868   -4.9500    0.0000 O   0  0  0  0  0  0  0  0  0  0  0  0
    3.5724   -6.1875    0.0000 O   0  0  0  0  0  0  0  0  0  0  0  0
    2.8579   -4.1250    0.0000 C   0  0  0  0  0  0  0  0  0  0  0  0
  1  2  1  0  0  0  0
  2  3  4  0  0  0  0
  3  4  4  0  0  0  0
  4  5  4  0  0  0  0
  5  6  1  0  0  0  0
  6  7  1  0  0  0  0
  7  8  4  0  0  0  0
  8  9  4  0  0  0  0
  9 10  4  0  0  0  0
 10 11  1  0  0  0  0
 11 12  1  0  0  0  0
 12 13  1  0  0  0  0
 13 14  1  0  0  0  0
 14 15  1  0  0  0  0
 15 16  1  0  0  0  0
 11 16  1  0  0  0  0
 10 17  4  0  0  0  0
 17 18  1  0  0  0  0
 17 19  4  0  0  0  0
  7 19  4  0  0  0  0
  5 20  4  0  0  0  0
 20 21  1  0  0  0  0
 21 22  2  0  0  0  0
 21 23  1  0  0  0  0
 20 24  4  0  0  0  0
  2 24  4  0  0  0  0
M  END
> <IC50(uM)>
0.041

> <Outcome>
1.0

> <BindingDB ID>
219987

> <BindingDB MonomerID>
102457

> <BindingDB Ligand Name>
US8536165, 30

> <Curation/DataSource>
US Patent

> <Article DOI>
?

> <PMID>
?

> <Patent Number>
US8536165

> <Authors>
Castro Palomino Laria, JC; Terricabras Belart, E; Erra Sola, M; Navarro Romero, E; Fonquerna Pou, S; Cardus Figueras, A; Lozoya Toribio, ME

> <Link to Ligand in BindingDB>
http://www.bindingdb.org/bind/chemsearch/marvin/MolStructure.jsp?monomerid=102457

> <Link to Ligand-Target Pair in BindingDB>
http://www.bindingdb.org/jsp/dbsearch/PrimarySearch_ki.jsp?energyterm=kJ/mole&tag=r21&monomerid=102457&enzyme=Dihydroorotate+dehydrogenase&column=ki&startPg=0&Increment=50&submit=Search

> <PubChem CID>
25187285

> <PubChem SID>
172097748

$$$$

  Mrv2115 07222212352D          

 33 36  0  0  0  0            999 V2000
   -0.6284    2.1599    0.0000 C   0  0  0  0  0  0  0  0  0  0  0  0
   -1.4534    2.1599    0.0000 C   0  0  0  0  0  0  0  0  0  0  0  0
   -1.8659    1.4455    0.0000 C   0  0  0  0  0  0  0  0  0  0  0  0
   -2.6909    1.4455    0.0000 C   0  0  0  0  0  0  0  0  0  0  0  0
   -3.1034    2.1599    0.0000 C   0  0  0  0  0  0  0  0  0  0  0  0
   -3.1034    0.7310    0.0000 O   0  0  0  0  0  0  0  0  0  0  0  0
   -2.6909    0.0165    0.0000 C   0  0  0  0  0  0  0  0  0  0  0  0
   -1.8659    0.0165    0.0000 C   0  0  0  0  0  0  0  0  0  0  0  0
   -1.4534   -0.6979    0.0000 C   0  0  0  0  0  0  0  0  0  0  0  0
   -0.6284   -0.6979    0.0000 N   0  0  0  0  0  0  0  0  0  0  0  0
   -0.1435   -1.3654    0.0000 N   0  0  0  0  0  0  0  0  0  0  0  0
    0.6411   -1.1104    0.0000 C   0  0  0  0  0  0  0  0  0  0  0  0
    0.6411   -0.2854    0.0000 N   0  0  0  0  0  0  0  0  0  0  0  0
   -0.1435   -0.0305    0.0000 C   0  0  0  0  0  0  0  0  0  0  0  0
   -0.3984    0.7541    0.0000 O   0  0  0  0  0  0  0  0  0  0  0  0
    1.3556    0.1271    0.0000 C   0  0  0  0  0  0  0  0  0  0  0  0
    2.0701   -0.2854    0.0000 C   0  0  0  0  0  0  0  0  0  0  0  0
    2.0701   -1.1104    0.0000 C   0  0  0  0  0  0  0  0  0  0  0  0
    1.3556   -1.5229    0.0000 C   0  0  0  0  0  0  0  0  0  0  0  0
   -1.8659   -1.4124    0.0000 C   0  0  0  0  0  0  0  0  0  0  0  0
   -1.4534   -2.1269    0.0000 F   0  0  0  0  0  0  0  0  0  0  0  0
   -2.6909   -1.4124    0.0000 C   0  0  0  0  0  0  0  0  0  0  0  0
   -3.1034   -0.6979    0.0000 C   0  0  0  0  0  0  0  0  0  0  0  0
   -3.9284   -0.6979    0.0000 C   0  0  0  0  0  0  0  0  0  0  0  0
   -4.3409    0.0165    0.0000 O   0  0  0  0  0  0  0  0  0  0  0  0
   -4.3409   -1.4124    0.0000 N   0  0  0  0  0  0  0  0  0  0  0  0
   -3.9284   -2.1269    0.0000 C   0  0  0  0  0  0  0  0  0  0  0  0
   -3.1034   -2.1269    0.0000 N   0  0  0  0  0  0  0  0  0  0  0  0
   -2.6909   -2.8414    0.0000 C   0  0  0  0  0  0  0  0  0  0  0  0
   -3.1034   -3.5558    0.0000 N   0  0  0  0  0  0  0  0  0  0  0  0
   -3.9284   -3.5558    0.0000 C   0  0  0  0  0  0  0  0  0  0  0  0
   -4.3409   -2.8414    0.0000 C   0  0  0  0  0  0  0  0  0  0  0  0
   -5.1659   -2.8414    0.0000 Cl  0  0  0  0  0  0  0  0  0  0  0  0
  1  2  1  0  0  0  0
  2  3  1  0  0  0  0
  3  4  1  0  0  0  0
  4  5  1  0  0  0  0
  4  6  1  0  0  0  0
  6  7  1  0  0  0  0
  7  8  4  0  0  0  0
  8  9  4  0  0  0  0
  9 10  1  0  0  0  0
 10 11  4  0  0  0  0
 11 12  4  0  0  0  0
 12 13  4  0  0  0  0
 13 14  4  0  0  0  0
 10 14  4  0  0  0  0
 14 15  2  0  0  0  0
 13 16  1  0  0  0  0
 16 17  1  0  0  0  0
 17 18  1  0  0  0  0
 18 19  1  0  0  0  0
 12 19  1  0  0  0  0
  9 20  4  0  0  0  0
 20 21  1  0  0  0  0
 20 22  4  0  0  0  0
 22 23  4  0  0  0  0
  7 23  4  0  0  0  0
 23 24  1  0  0  0  0
 24 25  2  0  0  0  0
 24 26  1  0  0  0  0
 26 27  1  0  0  0  0
 27 28  4  0  0  0  0
 28 29  4  0  0  0  0
 29 30  4  0  0  0  0
 30 31  4  0  0  0  0
 31 32  4  0  0  0  0
 27 32  4  0  0  0  0
 32 33  1  0  0  0  0
M  END
> <IC50(uM)>
0.31

> <Outcome>
1.0

> <BindingDB ID>
1020393

> <BindingDB MonomerID>
490349

> <BindingDB Ligand Name>
N-(5-chloropyrimidin-4-yl)-5-fluoro-4-(3-oxo-5,6,7,8-tetrahydro[1,2,4]triazolo[4,3-a]pyridin-2(3H)-yl)-2-[(2S)-pentan-2-yloxy]benzamide::US10968216, Example 17

> <Curation/DataSource>
US Patent

> <Article DOI>
?

> <PMID>
?

> <Patent Number>
US10968216

> <Authors>
Gradl, SN; Nguyen, D; Eis, K; Gunther, J; Stellfeld, T; Janzer, A; Christian, S; Mueller, T; Sheikh, SE; Zhou, HJ; Zhao, C; Sykes, DB; Ferrara, SJ; Liu, K; Herbert, SA; Merz, C; Niehues, M; Nising, CF; Schafer, M; Zimmermann, K; Knablein, J; Thede, K; Faupel, T

> <Link to Ligand in BindingDB>
http://www.bindingdb.org/bind/chemsearch/marvin/MolStructure.jsp?monomerid=490349

> <Link to Ligand-Target Pair in BindingDB>
http://www.bindingdb.org/jsp/dbsearch/PrimarySearch_ki.jsp?energyterm=kJ/mole&tag=r21&monomerid=490349&enzyme=Dihydroorotate+dehydrogenase&column=ki&startPg=0&Increment=50&submit=Search

> <PubChem CID>
134473916

> <PubChem SID>
447117076

$$$$

  Mrv2115 07222212352D          

 37 41  0  0  0  0            999 V2000
   -1.8659    1.4455    0.0000 C   0  0  0  0  0  0  0  0  0  0  0  0
   -2.6909    1.4455    0.0000 C   0  0  0  0  0  0  0  0  0  0  0  0
   -3.1034    0.7310    0.0000 O   0  0  0  0  0  0  0  0  0  0  0  0
   -2.6909    0.0165    0.0000 C   0  0  0  0  0  0  0  0  0  0  0  0
   -1.8659    0.0165    0.0000 C   0  0  0  0  0  0  0  0  0  0  0  0
   -1.4534   -0.6979    0.0000 C   0  0  0  0  0  0  0  0  0  0  0  0
   -0.6284   -0.6979    0.0000 N   0  0  0  0  0  0  0  0  0  0  0  0
   -0.1435   -1.3654    0.0000 N   0  0  0  0  0  0  0  0  0  0  0  0
    0.6411   -1.1104    0.0000 C   0  0  0  0  0  0  0  0  0  0  0  0
    0.6411   -0.2854    0.0000 N   0  0  0  0  0  0  0  0  0  0  0  0
   -0.1435   -0.0305    0.0000 C   0  0  0  0  0  0  0  0  0  0  0  0
   -0.3984    0.7541    0.0000 O   0  0  0  0  0  0  0  0  0  0  0  0
    1.3556    0.1271    0.0000 C   0  0  0  0  0  0  0  0  0  0  0  0
    2.0701   -0.2854    0.0000 C   0  0  0  0  0  0  0  0  0  0  0  0
    2.0701   -1.1104    0.0000 C   0  0  0  0  0  0  0  0  0  0  0  0
    1.3556   -1.5229    0.0000 C   0  0  0  0  0  0  0  0  0  0  0  0
   -1.8659   -1.4124    0.0000 C   0  0  0  0  0  0  0  0  0  0  0  0
   -1.4534   -2.1269    0.0000 F   0  0  0  0  0  0  0  0  0  0  0  0
   -2.6909   -1.4124    0.0000 C   0  0  0  0  0  0  0  0  0  0  0  0
   -3.1034   -0.6979    0.0000 C   0  0  0  0  0  0  0  0  0  0  0  0
   -3.9284   -0.6979    0.0000 C   0  0  0  0  0  0  0  0  0  0  0  0
   -4.3409    0.0165    0.0000 O   0  0  0  0  0  0  0  0  0  0  0  0
   -4.3409   -1.4124    0.0000 N   0  0  0  0  0  0  0  0  0  0  0  0
   -5.1659   -1.4124    0.0000 C   0  0  0  0  0  0  0  0  0  0  0  0
   -5.5784   -2.1269    0.0000 C   0  0  0  0  0  0  0  0  0  0  0  0
   -5.1659   -2.8414    0.0000 Cl  0  0  0  0  0  0  0  0  0  0  0  0
   -6.4034   -2.1269    0.0000 C   0  0  0  0  0  0  0  0  0  0  0  0
   -6.8159   -1.4124    0.0000 C   0  0  0  0  0  0  0  0  0  0  0  0
   -6.4034   -0.6979    0.0000 C   0  0  0  0  0  0  0  0  0  0  0  0
   -5.5784   -0.6979    0.0000 C   0  0  0  0  0  0  0  0  0  0  0  0
   -5.1659    0.0165    0.0000 Cl  0  0  0  0  0  0  0  0  0  0  0  0
   -3.1034    2.1599    0.0000 C   0  0  0  0  0  0  0  0  0  0  0  0
   -3.9284    2.1599    0.0000 C   0  0  0  0  0  0  0  0  0  0  0  0
   -4.3409    2.8744    0.0000 C   0  0  0  0  0  0  0  0  0  0  0  0
   -3.9284    3.5889    0.0000 C   0  0  0  0  0  0  0  0  0  0  0  0
   -3.1034    3.5889    0.0000 C   0  0  0  0  0  0  0  0  0  0  0  0
   -2.6909    2.8744    0.0000 C   0  0  0  0  0  0  0  0  0  0  0  0
  1  2  1  0  0  0  0
  2  3  1  0  0  0  0
  3  4  1  0  0  0  0
  4  5  4  0  0  0  0
  5  6  4  0  0  0  0
  6  7  1  0  0  0  0
  7  8  4  0  0  0  0
  8  9  4  0  0  0  0
  9 10  4  0  0  0  0
 10 11  4  0  0  0  0
  7 11  4  0  0  0  0
 11 12  2  0  0  0  0
 10 13  1  0  0  0  0
 13 14  1  0  0  0  0
 14 15  1  0  0  0  0
 15 16  1  0  0  0  0
  9 16  1  0  0  0  0
  6 17  4  0  0  0  0
 17 18  1  0  0  0  0
 17 19  4  0  0  0  0
 19 20  4  0  0  0  0
  4 20  4  0  0  0  0
 20 21  1  0  0  0  0
 21 22  2  0  0  0  0
 21 23  1  0  0  0  0
 23 24  1  0  0  0  0
 24 25  4  0  0  0  0
 25 26  1  0  0  0  0
 25 27  4  0  0  0  0
 27 28  4  0  0  0  0
 28 29  4  0  0  0  0
 29 30  4  0  0  0  0
 24 30  4  0  0  0  0
 30 31  1  0  0  0  0
  2 32  1  0  0  0  0
 32 33  1  0  0  0  0
 33 34  1  0  0  0  0
 34 35  1  0  0  0  0
 35 36  1  0  0  0  0
 36 37  1  0  0  0  0
 32 37  1  0  0  0  0
M  END
> <IC50(uM)>
0.005

> <Outcome>
1.0

> <BindingDB ID>
1020550

> <BindingDB MonomerID>
490489

> <BindingDB Ligand Name>
2-[(1S)-1-cyclohexylethoxy]-N-(2,6-dichlorophenyl)-5-fluoro-4-(3-oxo-5,6,7,8-tetrahydro-[1,2,4]triazolo[4,3-a]pyridin-2(3H)-yl)benzamide::US10968216, Example 157

> <Curation/DataSource>
US Patent

> <Article DOI>
?

> <PMID>
?

> <Patent Number>
US10968216

> <Authors>
Gradl, SN; Nguyen, D; Eis, K; Gunther, J; Stellfeld, T; Janzer, A; Christian, S; Mueller, T; Sheikh, SE; Zhou, HJ; Zhao, C; Sykes, DB; Ferrara, SJ; Liu, K; Herbert, SA; Merz, C; Niehues, M; Nising, CF; Schafer, M; Zimmermann, K; Knablein, J; Thede, K; Faupel, T

> <Link to Ligand in BindingDB>
http://www.bindingdb.org/bind/chemsearch/marvin/MolStructure.jsp?monomerid=490489

> <Link to Ligand-Target Pair in BindingDB>
http://www.bindingdb.org/jsp/dbsearch/PrimarySearch_ki.jsp?energyterm=kJ/mole&tag=r21&monomerid=490489&enzyme=Dihydroorotate+dehydrogenase&column=ki&startPg=0&Increment=50&submit=Search

> <PubChem CID>
142335907

> <PubChem SID>
447117216

$$$$

  Mrv2115 07222212352D          

 25 27  0  0  0  0            999 V2000
    1.4289   -4.9500    0.0000 O   0  0  0  0  0  0  0  0  0  0  0  0
    2.1434   -5.3625    0.0000 C   0  0  0  0  0  0  0  0  0  0  0  0
    2.8579   -4.9500    0.0000 O   0  0  0  0  0  0  0  0  0  0  0  0
    2.1434   -6.1875    0.0000 C   0  0  0  0  0  0  0  0  0  0  0  0
    2.8109   -6.6724    0.0000 C   0  0  0  0  0  0  0  0  0  0  0  0
    3.5955   -6.4175    0.0000 C   0  0  0  0  0  0  0  0  0  0  0  0
    4.2086   -6.9695    0.0000 O   0  0  0  0  0  0  0  0  0  0  0  0
    3.7670   -5.6105    0.0000 N   0  0  0  0  0  0  0  0  0  0  0  0
    4.5516   -5.3556    0.0000 C   0  0  0  0  0  0  0  0  0  0  0  0
    4.7231   -4.5486    0.0000 C   0  0  0  0  0  0  0  0  0  0  0  0
    5.5078   -4.2937    0.0000 C   0  0  0  0  0  0  0  0  0  0  0  0
    6.1209   -4.8457    0.0000 C   0  0  0  0  0  0  0  0  0  0  0  0
    6.9055   -4.5908    0.0000 O   0  0  0  0  0  0  0  0  0  0  0  0
    7.0770   -3.7838    0.0000 C   0  0  0  0  0  0  0  0  0  0  0  0
    7.8616   -3.5288    0.0000 C   0  0  0  0  0  0  0  0  0  0  0  0
    8.0332   -2.7219    0.0000 C   0  0  0  0  0  0  0  0  0  0  0  0
    8.8178   -2.4669    0.0000 C   0  0  0  0  0  0  0  0  0  0  0  0
    9.4309   -3.0190    0.0000 C   0  0  0  0  0  0  0  0  0  0  0  0
    9.2594   -3.8259    0.0000 C   0  0  0  0  0  0  0  0  0  0  0  0
    8.4747   -4.0809    0.0000 C   0  0  0  0  0  0  0  0  0  0  0  0
    5.9493   -5.6527    0.0000 C   0  0  0  0  0  0  0  0  0  0  0  0
    5.1647   -5.9076    0.0000 C   0  0  0  0  0  0  0  0  0  0  0  0
    2.5559   -7.4570    0.0000 C   0  0  0  0  0  0  0  0  0  0  0  0
    1.7309   -7.4570    0.0000 C   0  0  0  0  0  0  0  0  0  0  0  0
    1.4760   -6.6724    0.0000 C   0  0  0  0  0  0  0  0  0  0  0  0
  1  2  2  0  0  0  0
  2  3  1  0  0  0  0
  2  4  1  0  0  0  0
  4  5  2  0  0  0  0
  5  6  1  0  0  0  0
  6  7  2  0  0  0  0
  6  8  1  0  0  0  0
  8  9  1  0  0  0  0
  9 10  4  0  0  0  0
 10 11  4  0  0  0  0
 11 12  4  0  0  0  0
 12 13  1  0  0  0  0
 13 14  1  0  0  0  0
 14 15  1  0  0  0  0
 15 16  4  0  0  0  0
 16 17  4  0  0  0  0
 17 18  4  0  0  0  0
 18 19  4  0  0  0  0
 19 20  4  0  0  0  0
 15 20  4  0  0  0  0
 12 21  4  0  0  0  0
 21 22  4  0  0  0  0
  9 22  4  0  0  0  0
  5 23  1  0  0  0  0
 23 24  1  0  0  0  0
 24 25  1  0  0  0  0
  4 25  1  0  0  0  0
M  END
> <IC50(uM)>
2.0

> <Outcome>
0.0

> <BindingDB ID>
50319883

> <BindingDB MonomerID>
50173150

> <BindingDB Ligand Name>
2-(4-Benzyloxy-phenylcarbamoyl)-cyclopent-1-enecarboxylic acid::CHEMBL370008

> <Curation/DataSource>
ChEMBL

> <Article DOI>
10.1016/j.bmcl.2005.07.053

> <PMID>
16143532

> <Patent Number>
?

> <Authors>
Leban, J; Kralik, M; Mies, J; Gassen, M; Tentschert, K; Baumgartner, R

> <Link to Ligand in BindingDB>
http://www.bindingdb.org/bind/chemsearch/marvin/MolStructure.jsp?monomerid=50173150

> <Link to Ligand-Target Pair in BindingDB>
http://www.bindingdb.org/jsp/dbsearch/PrimarySearch_ki.jsp?energyterm=kJ/mole&tag=r21&monomerid=50173150&enzyme=Dihydroorotate+dehydrogenase&column=ki&startPg=0&Increment=50&submit=Search

> <PubChem CID>
21084803

> <PubChem SID>
104059121

$$$$

  Mrv2115 07222212352D          

 24 26  0  0  0  0            999 V2000
    2.1877   -4.7995    0.0000 C   0  0  0  0  0  0  0  0  0  0  0  0
    1.3807   -4.6280    0.0000 C   0  0  0  0  0  0  0  0  0  0  0  0
    1.1258   -3.8434    0.0000 O   0  0  0  0  0  0  0  0  0  0  0  0
    0.3188   -3.6718    0.0000 C   0  0  0  0  0  0  0  0  0  0  0  0
   -0.2332   -4.2849    0.0000 O   0  0  0  0  0  0  0  0  0  0  0  0
    0.0639   -2.8872    0.0000 C   0  0  0  0  0  0  0  0  0  0  0  0
    0.6159   -2.2741    0.0000 C   0  0  0  0  0  0  0  0  0  0  0  0
    1.4229   -2.4457    0.0000 N   0  0  0  0  0  0  0  0  0  0  0  0
    1.9749   -1.8326    0.0000 C   0  0  0  0  0  0  0  0  0  0  0  0
    1.7200   -1.0479    0.0000 C   0  0  0  0  0  0  0  0  0  0  0  0
    2.2720   -0.4349    0.0000 C   0  0  0  0  0  0  0  0  0  0  0  0
    3.0790   -0.6064    0.0000 C   0  0  0  0  0  0  0  0  0  0  0  0
    3.7464   -0.1215    0.0000 S   0  0  0  0  0  0  0  0  0  0  0  0
    4.4139   -0.6064    0.0000 C   0  0  0  0  0  0  0  0  0  0  0  0
    5.2208   -0.4349    0.0000 C   0  0  0  0  0  0  0  0  0  0  0  0
    5.7729   -1.0479    0.0000 C   0  0  0  0  0  0  0  0  0  0  0  0
    5.5179   -1.8326    0.0000 C   0  0  0  0  0  0  0  0  0  0  0  0
    4.7110   -2.0041    0.0000 C   0  0  0  0  0  0  0  0  0  0  0  0
    4.1589   -1.3910    0.0000 C   0  0  0  0  0  0  0  0  0  0  0  0
    3.3339   -1.3910    0.0000 C   0  0  0  0  0  0  0  0  0  0  0  0
    2.7819   -2.0041    0.0000 C   0  0  0  0  0  0  0  0  0  0  0  0
   -0.7431   -2.7157    0.0000 N   0  3  0  0  0  0  0  0  0  0  0  0
   -0.9980   -1.9311    0.0000 O   0  0  0  0  0  0  0  0  0  0  0  0
   -1.2951   -3.3288    0.0000 O   0  5  0  0  0  0  0  0  0  0  0  0
  1  2  1  0  0  0  0
  2  3  1  0  0  0  0
  3  4  1  0  0  0  0
  4  5  2  0  0  0  0
  4  6  1  0  0  0  0
  6  7  2  0  0  0  0
  7  8  1  0  0  0  0
  8  9  1  0  0  0  0
  9 10  4  0  0  0  0
 10 11  4  0  0  0  0
 11 12  4  0  0  0  0
 12 13  4  0  0  0  0
 13 14  4  0  0  0  0
 14 15  4  0  0  0  0
 15 16  4  0  0  0  0
 16 17  4  0  0  0  0
 17 18  4  0  0  0  0
 18 19  4  0  0  0  0
 14 19  4  0  0  0  0
 19 20  4  0  0  0  0
 12 20  4  0  0  0  0
 20 21  4  0  0  0  0
  9 21  4  0  0  0  0
  6 22  1  0  0  0  0
 22 23  2  0  0  0  0
 22 24  1  0  0  0  0
M  CHG  2  22   1  24  -1
M  END
> <IC50(uM)>
100.0

> <Outcome>
0.0

> <BindingDB ID>
50889932

> <BindingDB MonomerID>
50269004

> <BindingDB Ligand Name>
CHEMBL4073917

> <Curation/DataSource>
ChEMBL

> <Article DOI>
10.1016/j.bmcl.2017.06.052

> <PMID>
28669445

> <Patent Number>
?

> <Authors>
McConkey, GA; Bedingfield, PTP; Burrell, DR; Chambers, NC; Cunningham, F; Prior, TJ; Fishwick, CWG; Boa, AN

> <Link to Ligand in BindingDB>
http://www.bindingdb.org/bind/chemsearch/marvin/MolStructure.jsp?monomerid=50269004

> <Link to Ligand-Target Pair in BindingDB>
http://www.bindingdb.org/jsp/dbsearch/PrimarySearch_ki.jsp?energyterm=kJ/mole&tag=r21&monomerid=50269004&enzyme=Dihydroorotate+dehydrogenase&column=ki&startPg=0&Increment=50&submit=Search

> <PubChem CID>
137641335

> <PubChem SID>
404915046

$$$$

  Mrv2115 07222212352D          

 28 32  0  0  0  0            999 V2000
    3.3523   -0.2854    0.0000 O   0  0  0  0  0  0  0  0  0  0  0  0
    3.3523   -1.1104    0.0000 C   0  0  0  0  0  0  0  0  0  0  0  0
    4.0668   -1.5229    0.0000 C   0  0  0  0  0  0  0  0  0  0  0  0
    4.7812   -1.1104    0.0000 C   0  0  0  0  0  0  0  0  0  0  0  0
    5.4957   -1.5229    0.0000 C   0  0  0  0  0  0  0  0  0  0  0  0
    5.4957   -2.3479    0.0000 C   0  0  0  0  0  0  0  0  0  0  0  0
    4.7812   -2.7604    0.0000 C   0  0  0  0  0  0  0  0  0  0  0  0
    4.0668   -2.3479    0.0000 C   0  0  0  0  0  0  0  0  0  0  0  0
    3.3523   -2.7604    0.0000 C   0  0  0  0  0  0  0  0  0  0  0  0
    3.3523   -3.5854    0.0000 O   0  0  0  0  0  0  0  0  0  0  0  0
    2.6378   -2.3479    0.0000 C   0  0  0  0  0  0  0  0  0  0  0  0
    2.6378   -1.5229    0.0000 C   0  0  0  0  0  0  0  0  0  0  0  0
    1.8532   -1.2680    0.0000 N   0  0  0  0  0  0  0  0  0  0  0  0
    1.3683   -1.9354    0.0000 N   0  0  0  0  0  0  0  0  0  0  0  0
    1.8532   -2.6029    0.0000 N   0  0  0  0  0  0  0  0  0  0  0  0
    1.5983   -3.3875    0.0000 C   0  0  0  0  0  0  0  0  0  0  0  0
    2.1503   -4.0006    0.0000 C   0  0  0  0  0  0  0  0  0  0  0  0
    1.8953   -4.7852    0.0000 C   0  0  0  0  0  0  0  0  0  0  0  0
    1.0884   -4.9567    0.0000 C   0  0  0  0  0  0  0  0  0  0  0  0
    0.8334   -5.7414    0.0000 C   0  0  0  0  0  0  0  0  0  0  0  0
    1.3855   -6.3545    0.0000 C   0  0  0  0  0  0  0  0  0  0  0  0
    1.1305   -7.1391    0.0000 C   0  0  0  0  0  0  0  0  0  0  0  0
    0.3236   -7.3106    0.0000 C   0  0  0  0  0  0  0  0  0  0  0  0
   -0.2285   -6.6975    0.0000 C   0  0  0  0  0  0  0  0  0  0  0  0
    0.0265   -5.9129    0.0000 C   0  0  0  0  0  0  0  0  0  0  0  0
   -0.5256   -5.2998    0.0000 O   0  0  0  0  0  0  0  0  0  0  0  0
    0.5363   -4.3437    0.0000 C   0  0  0  0  0  0  0  0  0  0  0  0
    0.7913   -3.5590    0.0000 C   0  0  0  0  0  0  0  0  0  0  0  0
  1  2  2  0  0  0  0
  2  3  1  0  0  0  0
  3  4  4  0  0  0  0
  4  5  4  0  0  0  0
  5  6  4  0  0  0  0
  6  7  4  0  0  0  0
  7  8  4  0  0  0  0
  3  8  4  0  0  0  0
  8  9  1  0  0  0  0
  9 10  2  0  0  0  0
  9 11  1  0  0  0  0
 11 12  4  0  0  0  0
  2 12  1  0  0  0  0
 12 13  4  0  0  0  0
 13 14  4  0  0  0  0
 14 15  4  0  0  0  0
 11 15  4  0  0  0  0
 15 16  1  0  0  0  0
 16 17  4  0  0  0  0
 17 18  4  0  0  0  0
 18 19  4  0  0  0  0
 19 20  1  0  0  0  0
 20 21  4  0  0  0  0
 21 22  4  0  0  0  0
 22 23  4  0  0  0  0
 23 24  4  0  0  0  0
 24 25  4  0  0  0  0
 20 25  4  0  0  0  0
 25 26  1  0  0  0  0
 19 27  4  0  0  0  0
 27 28  4  0  0  0  0
 16 28  4  0  0  0  0
M  END
> <IC50(uM)>
0.23

> <Outcome>
1.0

> <BindingDB ID>
51338183

> <BindingDB MonomerID>
50541657

> <BindingDB Ligand Name>
CHEMBL4648838

> <Curation/DataSource>
ChEMBL

> <Article DOI>
10.1021/acs.jmedchem.0c00512

> <PMID>
32496056

> <Patent Number>
?

> <Authors>
Zuo, Z; Liu, X; Qian, X; Zeng, T; Sang, N; Liu, H; Zhou, Y; Tao, L; Zhou, X; Su, N; Yu, Y; Chen, Q; Luo, Y; Zhao, Y

> <Link to Ligand in BindingDB>
http://www.bindingdb.org/bind/chemsearch/marvin/MolStructure.jsp?monomerid=50541657

> <Link to Ligand-Target Pair in BindingDB>
http://www.bindingdb.org/jsp/dbsearch/PrimarySearch_ki.jsp?energyterm=kJ/mole&tag=r21&monomerid=50541657&enzyme=Dihydroorotate+dehydrogenase&column=ki&startPg=0&Increment=50&submit=Search

> <PubChem CID>
156020224

> <PubChem SID>
442143220

$$$$

  Mrv2115 07222212352D          

 35 38  0  0  0  0            999 V2000
    6.8486   -4.3585    0.0000 C   0  0  0  0  0  0  0  0  0  0  0  0
    6.0281   -4.2723    0.0000 C   0  0  0  0  0  0  0  0  0  0  0  0
    5.6926   -3.5186    0.0000 O   0  0  0  0  0  0  0  0  0  0  0  0
    4.8721   -3.4324    0.0000 C   0  0  0  0  0  0  0  0  0  0  0  0
    4.3872   -4.0998    0.0000 C   0  0  0  0  0  0  0  0  0  0  0  0
    3.5667   -4.0136    0.0000 C   0  0  0  0  0  0  0  0  0  0  0  0
    3.0818   -4.6810    0.0000 N   0  0  0  0  0  0  0  0  0  0  0  0
    3.3367   -5.4656    0.0000 N   0  0  0  0  0  0  0  0  0  0  0  0
    2.6693   -5.9506    0.0000 C   0  0  0  0  0  0  0  0  0  0  0  0
    2.6693   -6.7756    0.0000 C   0  0  0  0  0  0  0  0  0  0  0  0
    3.2526   -7.3589    0.0000 C   0  0  0  0  0  0  0  0  0  0  0  0
    2.6693   -7.9423    0.0000 C   0  0  0  0  0  0  0  0  0  0  0  0
    2.0859   -7.3589    0.0000 C   0  0  0  0  0  0  0  0  0  0  0  0
    2.0018   -5.4656    0.0000 N   0  0  0  0  0  0  0  0  0  0  0  0
    1.2172   -5.7206    0.0000 C   0  0  0  0  0  0  0  0  0  0  0  0
    2.2568   -4.6810    0.0000 C   0  0  0  0  0  0  0  0  0  0  0  0
    1.7718   -4.0136    0.0000 O   0  0  0  0  0  0  0  0  0  0  0  0
    3.2311   -3.2599    0.0000 C   0  0  0  0  0  0  0  0  0  0  0  0
    2.4106   -3.1737    0.0000 F   0  0  0  0  0  0  0  0  0  0  0  0
    3.7160   -2.5925    0.0000 C   0  0  0  0  0  0  0  0  0  0  0  0
    4.5365   -2.6787    0.0000 C   0  0  0  0  0  0  0  0  0  0  0  0
    5.0214   -2.0113    0.0000 C   0  0  0  0  0  0  0  0  0  0  0  0
    5.8419   -2.0975    0.0000 O   0  0  0  0  0  0  0  0  0  0  0  0
    4.6859   -1.2576    0.0000 N   0  0  0  0  0  0  0  0  0  0  0  0
    5.1708   -0.5902    0.0000 C   0  0  0  0  0  0  0  0  0  0  0  0
    4.8353    0.1635    0.0000 C   0  0  0  0  0  0  0  0  0  0  0  0
    5.3202    0.8310    0.0000 C   0  0  0  0  0  0  0  0  0  0  0  0
    6.1407    0.7447    0.0000 C   0  0  0  0  0  0  0  0  0  0  0  0
    6.4762   -0.0090    0.0000 C   0  0  0  0  0  0  0  0  0  0  0  0
    5.9913   -0.6764    0.0000 C   0  0  0  0  0  0  0  0  0  0  0  0
    6.3269   -1.4301    0.0000 F   0  0  0  0  0  0  0  0  0  0  0  0
    5.5432   -4.9397    0.0000 C   0  0  0  0  0  0  0  0  0  0  0  0
    4.8758   -4.4548    0.0000 F   0  0  0  0  0  0  0  0  0  0  0  0
    6.2106   -5.4247    0.0000 F   0  0  0  0  0  0  0  0  0  0  0  0
    5.0583   -5.6072    0.0000 F   0  0  0  0  0  0  0  0  0  0  0  0
  1  2  1  0  0  0  0
  2  3  1  0  0  0  0
  3  4  1  0  0  0  0
  4  5  4  0  0  0  0
  5  6  4  0  0  0  0
  6  7  1  0  0  0  0
  7  8  4  0  0  0  0
  8  9  4  0  0  0  0
  9 10  1  0  0  0  0
 10 11  1  0  0  0  0
 11 12  1  0  0  0  0
 12 13  1  0  0  0  0
 10 13  1  0  0  0  0
  9 14  4  0  0  0  0
 14 15  1  0  0  0  0
 14 16  4  0  0  0  0
  7 16  4  0  0  0  0
 16 17  2  0  0  0  0
  6 18  4  0  0  0  0
 18 19  1  0  0  0  0
 18 20  4  0  0  0  0
 20 21  4  0  0  0  0
  4 21  4  0  0  0  0
 21 22  1  0  0  0  0
 22 23  2  0  0  0  0
 22 24  1  0  0  0  0
 24 25  1  0  0  0  0
 25 26  4  0  0  0  0
 26 27  4  0  0  0  0
 27 28  4  0  0  0  0
 28 29  4  0  0  0  0
 29 30  4  0  0  0  0
 25 30  4  0  0  0  0
 30 31  1  0  0  0  0
  2 32  1  0  0  0  0
 32 33  1  0  0  0  0
 32 34  1  0  0  0  0
 32 35  1  0  0  0  0
M  END
> <IC50(uM)>
0.4

> <Outcome>
1.0

> <BindingDB ID>
1098672; 972518

> <BindingDB MonomerID>
470393

> <BindingDB Ligand Name>
4-(3-cyclobutyl-4-methyl-5-oxo-4,5-dihydro-1H-1,2,4-triazol-1-yl)-5-fluoro-N-(2-fluorophenyl)-2-{[(2S)-1,1,1-trifluoropropan-2-yl]oxy}benzamide::US10815215, Example 52::US11130745, Example 52; 4-(3-cyclobutyl-4-methyl-5-oxo-4,5-dihydro-1H-1,2,4-triazol-1-yl)-5-fluoro-N-(2-fluorophenyl)-2-{[(2S)-1,1,1-trifluoropropan-2-yl]oxy}benzamide::US10815215, Example 52

> <Curation/DataSource>
US Patent

> <Article DOI>
?

> <PMID>
?

> <Patent Number>
US11130745; US10815215

> <Authors>
Gradl, SN; Nguyen, D; Eis, K; Gunther, J; Stellfeld, T; Janzer, A; Christian, S; Muller, T; Sheikh, SE; Sykes, DB; Ferrara, SJ; Krober, M; Merz, C; Niehues, M; Schafer, M; Zimmermann, K; Nising, CF; Gradl, SN; Nguyen, D; Eis, K; Gunther, J; Stellfeld, T; Janzer, A; Christian, S; Muller, T; Sheikh, SE; Zhou, HJ; Zhao, C; Sykes, DB; Ferrara, SJ; Liu, K; Krober, M; Merz, C; Niehues, M; Schafer, M; Zimmermann, K; Nising, CF

> <Link to Ligand in BindingDB>
http://www.bindingdb.org/bind/chemsearch/marvin/MolStructure.jsp?monomerid=470393

> <Link to Ligand-Target Pair in BindingDB>
http://www.bindingdb.org/jsp/dbsearch/PrimarySearch_ki.jsp?energyterm=kJ/mole&tag=r21&monomerid=470393&enzyme=Dihydroorotate+dehydrogenase&column=ki&startPg=0&Increment=50&submit=Search

> <PubChem CID>
134470366

> <PubChem SID>
441609570

$$$$

  Mrv2115 07222212352D          

 23 24  0  0  0  0            999 V2000
    3.4656    1.1759    0.0000 C   0  0  0  0  0  0  0  0  0  0  0  0
    2.7512    0.7634    0.0000 C   0  0  0  0  0  0  0  0  0  0  0  0
    2.7512   -0.0616    0.0000 O   0  0  0  0  0  0  0  0  0  0  0  0
    2.0367   -0.4741    0.0000 C   0  0  0  0  0  0  0  0  0  0  0  0
    1.3222   -0.0616    0.0000 O   0  0  0  0  0  0  0  0  0  0  0  0
    2.0367   -1.2991    0.0000 C   0  0  0  0  0  0  0  0  0  0  0  0
    1.3693   -1.7840    0.0000 N   0  0  0  0  0  0  0  0  0  0  0  0
    1.6242   -2.5687    0.0000 C   0  0  0  0  0  0  0  0  0  0  0  0
    2.4492   -2.5687    0.0000 C   0  0  0  0  0  0  0  0  0  0  0  0
    2.9341   -3.2361    0.0000 C   0  0  0  0  0  0  0  0  0  0  0  0
    2.5986   -3.9898    0.0000 C   0  0  0  0  0  0  0  0  0  0  0  0
    3.0835   -4.6572    0.0000 C   0  0  0  0  0  0  0  0  0  0  0  0
    2.7479   -5.4109    0.0000 C   0  0  0  0  0  0  0  0  0  0  0  0
    1.9275   -5.4971    0.0000 C   0  0  0  0  0  0  0  0  0  0  0  0
    1.5919   -6.2508    0.0000 C   0  0  0  0  0  0  0  0  0  0  0  0
    1.2563   -7.0045    0.0000 F   0  0  0  0  0  0  0  0  0  0  0  0
    0.8382   -5.9152    0.0000 F   0  0  0  0  0  0  0  0  0  0  0  0
    2.3456   -6.5863    0.0000 F   0  0  0  0  0  0  0  0  0  0  0  0
    1.4425   -4.8297    0.0000 C   0  0  0  0  0  0  0  0  0  0  0  0
    1.7781   -4.0760    0.0000 C   0  0  0  0  0  0  0  0  0  0  0  0
    1.2932   -3.4086    0.0000 Cl  0  0  0  0  0  0  0  0  0  0  0  0
    2.7041   -1.7840    0.0000 C   0  0  0  0  0  0  0  0  0  0  0  0
    3.4888   -1.5291    0.0000 C   0  0  0  0  0  0  0  0  0  0  0  0
  1  2  1  0  0  0  0
  2  3  1  0  0  0  0
  3  4  1  0  0  0  0
  4  5  2  0  0  0  0
  4  6  1  0  0  0  0
  6  7  4  0  0  0  0
  7  8  4  0  0  0  0
  8  9  4  0  0  0  0
  9 10  1  0  0  0  0
 10 11  1  0  0  0  0
 11 12  4  0  0  0  0
 12 13  4  0  0  0  0
 13 14  4  0  0  0  0
 14 15  1  0  0  0  0
 15 16  1  0  0  0  0
 15 17  1  0  0  0  0
 15 18  1  0  0  0  0
 14 19  4  0  0  0  0
 19 20  4  0  0  0  0
 11 20  4  0  0  0  0
 20 21  1  0  0  0  0
  9 22  4  0  0  0  0
  6 22  4  0  0  0  0
 22 23  1  0  0  0  0
M  STY  1   1 DAT
M  SAL   1  1   7
M  SDT   1 MRV_IMPLICIT_H                                        
M  SDD   1     0.5304   -0.4125    DR    ALL  0       0  
M  SED   1 IMPL_H1
M  END
> <IC50(uM)>
100.0

> <Outcome>
0.0

> <BindingDB ID>
51330113

> <BindingDB MonomerID>
50538361

> <BindingDB Ligand Name>
CHEMBL4633770

> <Curation/DataSource>
ChEMBL

> <Article DOI>
10.1021/acs.jmedchem.0c00311

> <PMID>
32248693

> <Patent Number>
?

> <Authors>
Kokkonda, S; Deng, X; White, KL; El Mazouni, F; White, J; Shackleford, DM; Katneni, K; Chiu, FCK; Barker, H; McLaren, J; Crighton, E; Chen, G; Angulo-Barturen, I; Jimenez-Diaz, MB; Ferrer, S; Huertas-Valentin, L; Martinez-Martinez, MS; Lafuente-Monasterio, MJ; Chittimalla, R; Shahi, SP; Wittlin, S; Waterson, D; Burrows, JN; Matthews, D; Tomchick, D; Rathod, PK; Palmer, MJ; Charman, SA; Phillips, MA

> <Link to Ligand in BindingDB>
http://www.bindingdb.org/bind/chemsearch/marvin/MolStructure.jsp?monomerid=50538361

> <Link to Ligand-Target Pair in BindingDB>
http://www.bindingdb.org/jsp/dbsearch/PrimarySearch_ki.jsp?energyterm=kJ/mole&tag=r21&monomerid=50538361&enzyme=Dihydroorotate+dehydrogenase&column=ki&startPg=0&Increment=50&submit=Search

> <PubChem CID>
156010528

> <PubChem SID>
442139924

$$$$

  Mrv2115 07222212352D          

 36 38  0  0  0  0            999 V2000
    4.2868   -2.4750    0.0000 C   0  0  0  0  0  0  0  0  0  0  0  0
    3.5724   -2.8875    0.0000 C   0  0  0  0  0  0  0  0  0  0  0  0
    2.8579   -2.4750    0.0000 O   0  0  0  0  0  0  0  0  0  0  0  0
    2.1434   -2.8875    0.0000 C   0  0  0  0  0  0  0  0  0  0  0  0
    2.1434   -3.7125    0.0000 C   0  0  0  0  0  0  0  0  0  0  0  0
    1.4289   -4.1250    0.0000 C   0  0  0  0  0  0  0  0  0  0  0  0
    1.4289   -4.9500    0.0000 N   0  0  0  0  0  0  0  0  0  0  0  0
    2.0964   -5.4349    0.0000 N   0  0  0  0  0  0  0  0  0  0  0  0
    1.8414   -6.2195    0.0000 C   0  0  0  0  0  0  0  0  0  0  0  0
    2.3264   -6.8870    0.0000 C   0  0  0  0  0  0  0  0  0  0  0  0
    2.8113   -7.5544    0.0000 C   0  0  0  0  0  0  0  0  0  0  0  0
    2.9938   -6.4021    0.0000 C   0  0  0  0  0  0  0  0  0  0  0  0
    1.6589   -7.3719    0.0000 O   0  0  0  0  0  0  0  0  0  0  0  0
    1.0164   -6.2195    0.0000 N   0  0  0  0  0  0  0  0  0  0  0  0
    0.5315   -6.8870    0.0000 C   0  0  0  0  0  0  0  0  0  0  0  0
    0.7615   -5.4349    0.0000 C   0  0  0  0  0  0  0  0  0  0  0  0
   -0.0231   -5.1800    0.0000 O   0  0  0  0  0  0  0  0  0  0  0  0
    0.7145   -3.7125    0.0000 C   0  0  0  0  0  0  0  0  0  0  0  0
    0.0000   -4.1250    0.0000 F   0  0  0  0  0  0  0  0  0  0  0  0
    0.7145   -2.8875    0.0000 C   0  0  0  0  0  0  0  0  0  0  0  0
    1.4289   -2.4750    0.0000 C   0  0  0  0  0  0  0  0  0  0  0  0
    1.4289   -1.6500    0.0000 C   0  0  0  0  0  0  0  0  0  0  0  0
    2.1434   -1.2375    0.0000 O   0  0  0  0  0  0  0  0  0  0  0  0
    0.7145   -1.2375    0.0000 N   0  0  0  0  0  0  0  0  0  0  0  0
    0.7145   -0.4125    0.0000 C   0  0  0  0  0  0  0  0  0  0  0  0
    0.0000    0.0000    0.0000 C   0  0  0  0  0  0  0  0  0  0  0  0
   -0.7145   -0.4125    0.0000 F   0  0  0  0  0  0  0  0  0  0  0  0
    0.0000    0.8250    0.0000 C   0  0  0  0  0  0  0  0  0  0  0  0
    0.7145    1.2375    0.0000 C   0  0  0  0  0  0  0  0  0  0  0  0
    1.4289    0.8250    0.0000 C   0  0  0  0  0  0  0  0  0  0  0  0
    1.4289    0.0000    0.0000 C   0  0  0  0  0  0  0  0  0  0  0  0
    2.1434   -0.4125    0.0000 Cl  0  0  0  0  0  0  0  0  0  0  0  0
    3.5724   -3.7125    0.0000 C   0  0  0  0  0  0  0  0  0  0  0  0
    2.7474   -3.7125    0.0000 F   0  0  0  0  0  0  0  0  0  0  0  0
    4.3974   -3.7125    0.0000 F   0  0  0  0  0  0  0  0  0  0  0  0
    3.5724   -4.5375    0.0000 F   0  0  0  0  0  0  0  0  0  0  0  0
  1  2  1  0  0  0  0
  2  3  1  0  0  0  0
  3  4  1  0  0  0  0
  4  5  4  0  0  0  0
  5  6  4  0  0  0  0
  6  7  1  0  0  0  0
  7  8  4  0  0  0  0
  8  9  4  0  0  0  0
  9 10  1  0  0  0  0
 10 11  1  0  0  0  0
 10 12  1  0  0  0  0
 10 13  1  0  0  0  0
  9 14  4  0  0  0  0
 14 15  1  0  0  0  0
 14 16  4  0  0  0  0
  7 16  4  0  0  0  0
 16 17  2  0  0  0  0
  6 18  4  0  0  0  0
 18 19  1  0  0  0  0
 18 20  4  0  0  0  0
 20 21  4  0  0  0  0
  4 21  4  0  0  0  0
 21 22  1  0  0  0  0
 22 23  2  0  0  0  0
 22 24  1  0  0  0  0
 24 25  1  0  0  0  0
 25 26  4  0  0  0  0
 26 27  1  0  0  0  0
 26 28  4  0  0  0  0
 28 29  4  0  0  0  0
 29 30  4  0  0  0  0
 30 31  4  0  0  0  0
 25 31  4  0  0  0  0
 31 32  1  0  0  0  0
  2 33  1  0  0  0  0
 33 34  1  0  0  0  0
 33 35  1  0  0  0  0
 33 36  1  0  0  0  0
M  END
> <IC50(uM)>
0.00617

> <Outcome>
1.0

> <BindingDB ID>
972578; 1098732

> <BindingDB MonomerID>
470453

> <BindingDB Ligand Name>
N-(2-chloro-6-fluorophenyl)-5-fluoro-4-[3-(2-hydroxypropan-2-yl)-4-methyl-5-oxo-4,5-dihydro-1H-1,2,4-triazol-1-yl]-2-{[(2S)-1,1,1-trifluoropropan-2-yl]oxy}benzamide::US10815215, Example 120; N-(2-chloro-6-fluorophenyl)-5-fluoro-4-[3-(2-hydroxypropan-2-yl)-4-methyl-5-oxo-4,5-dihydro-1H-1,2,4-triazol-1-yl]-2-{[(2S)-1,1,1-trifluoropropan-2-yl]oxy}benzamide::US10815215, Example 120::US11130745, Example 120

> <Curation/DataSource>
US Patent

> <Article DOI>
?

> <PMID>
?

> <Patent Number>
US10815215; US11130745

> <Authors>
Gradl, SN; Nguyen, D; Eis, K; Gunther, J; Stellfeld, T; Janzer, A; Christian, S; Muller, T; Sheikh, SE; Zhou, HJ; Zhao, C; Sykes, DB; Ferrara, SJ; Liu, K; Krober, M; Merz, C; Niehues, M; Schafer, M; Zimmermann, K; Nising, CF; Gradl, SN; Nguyen, D; Eis, K; Gunther, J; Stellfeld, T; Janzer, A; Christian, S; Muller, T; Sheikh, SE; Sykes, DB; Ferrara, SJ; Krober, M; Merz, C; Niehues, M; Schafer, M; Zimmermann, K; Nising, CF

> <Link to Ligand in BindingDB>
http://www.bindingdb.org/bind/chemsearch/marvin/MolStructure.jsp?monomerid=470453

> <Link to Ligand-Target Pair in BindingDB>
http://www.bindingdb.org/jsp/dbsearch/PrimarySearch_ki.jsp?energyterm=kJ/mole&tag=r21&monomerid=470453&enzyme=Dihydroorotate+dehydrogenase&column=ki&startPg=0&Increment=50&submit=Search

> <PubChem CID>
134470276

> <PubChem SID>
441609630

$$$$

  Mrv2115 07222212352D          

 30 33  0  0  0  0            999 V2000
    4.0668    2.3479    0.0000 C   0  0  0  0  0  0  0  0  0  0  0  0
    3.3523    1.9354    0.0000 C   0  0  0  0  0  0  0  0  0  0  0  0
    3.3523    1.1104    0.0000 C   0  0  0  0  0  0  0  0  0  0  0  0
    2.6378    0.6979    0.0000 C   0  0  0  0  0  0  0  0  0  0  0  0
    2.6378   -0.1271    0.0000 C   0  0  0  0  0  0  0  0  0  0  0  0
    1.9233   -0.5396    0.0000 O   0  0  0  0  0  0  0  0  0  0  0  0
    3.3523   -0.5396    0.0000 O   0  0  0  0  0  0  0  0  0  0  0  0
    1.9233    1.1104    0.0000 C   0  0  0  0  0  0  0  0  0  0  0  0
    1.1387    0.8555    0.0000 N   0  0  0  0  0  0  0  0  0  0  0  0
    0.6538    1.5229    0.0000 C   0  0  0  0  0  0  0  0  0  0  0  0
   -0.1712    1.5229    0.0000 C   0  0  0  0  0  0  0  0  0  0  0  0
   -0.5837    0.8085    0.0000 C   0  0  0  0  0  0  0  0  0  0  0  0
   -0.1712    0.0940    0.0000 F   0  0  0  0  0  0  0  0  0  0  0  0
   -1.4087    0.8085    0.0000 C   0  0  0  0  0  0  0  0  0  0  0  0
   -1.8212    0.0940    0.0000 F   0  0  0  0  0  0  0  0  0  0  0  0
   -1.8212    1.5229    0.0000 C   0  0  0  0  0  0  0  0  0  0  0  0
   -2.6462    1.5229    0.0000 C   0  0  0  0  0  0  0  0  0  0  0  0
   -3.0587    0.8085    0.0000 C   0  0  0  0  0  0  0  0  0  0  0  0
   -3.8837    0.8085    0.0000 C   0  0  0  0  0  0  0  0  0  0  0  0
   -4.2962    1.5229    0.0000 C   0  0  0  0  0  0  0  0  0  0  0  0
   -3.8837    2.2374    0.0000 C   0  0  0  0  0  0  0  0  0  0  0  0
   -4.2962    2.9519    0.0000 F   0  0  0  0  0  0  0  0  0  0  0  0
   -3.0587    2.2374    0.0000 C   0  0  0  0  0  0  0  0  0  0  0  0
   -1.4087    2.2374    0.0000 C   0  0  0  0  0  0  0  0  0  0  0  0
   -1.8212    2.9519    0.0000 F   0  0  0  0  0  0  0  0  0  0  0  0
   -0.5837    2.2374    0.0000 C   0  0  0  0  0  0  0  0  0  0  0  0
   -0.1712    2.9519    0.0000 F   0  0  0  0  0  0  0  0  0  0  0  0
    1.1387    2.1904    0.0000 N   0  0  0  0  0  0  0  0  0  0  0  0
    1.9233    1.9354    0.0000 C   0  0  0  0  0  0  0  0  0  0  0  0
    2.6378    2.3479    0.0000 C   0  0  0  0  0  0  0  0  0  0  0  0
  1  2  1  0  0  0  0
  2  3  4  0  0  0  0
  3  4  4  0  0  0  0
  4  5  1  0  0  0  0
  5  6  2  0  0  0  0
  5  7  1  0  0  0  0
  4  8  4  0  0  0  0
  8  9  4  0  0  0  0
  9 10  4  0  0  0  0
 10 11  1  0  0  0  0
 11 12  4  0  0  0  0
 12 13  1  0  0  0  0
 12 14  4  0  0  0  0
 14 15  1  0  0  0  0
 14 16  4  0  0  0  0
 16 17  1  0  0  0  0
 17 18  4  0  0  0  0
 18 19  4  0  0  0  0
 19 20  4  0  0  0  0
 20 21  4  0  0  0  0
 21 22  1  0  0  0  0
 21 23  4  0  0  0  0
 17 23  4  0  0  0  0
 16 24  4  0  0  0  0
 24 25  1  0  0  0  0
 24 26  4  0  0  0  0
 11 26  4  0  0  0  0
 26 27  1  0  0  0  0
 10 28  4  0  0  0  0
 28 29  4  0  0  0  0
  8 29  4  0  0  0  0
 29 30  4  0  0  0  0
  2 30  4  0  0  0  0
M  STY  1   1 DAT
M  SAL   1  1   9
M  SDT   1 MRV_IMPLICIT_H                                        
M  SDD   1     0.5304   -0.4125    DR    ALL  0       0  
M  SED   1 IMPL_H1
M  END
> <IC50(uM)>
0.00886

> <Outcome>
1.0

> <BindingDB ID>
297828

> <BindingDB MonomerID>
155484

> <BindingDB Ligand Name>
US9006454, I126

> <Curation/DataSource>
US Patent

> <Article DOI>
?

> <PMID>
?

> <Patent Number>
US9006454

> <Authors>
Thunuguntla, SS; Subramanya, H; Kunnam, SR; Sanivaru Vijay, SR; Bingi, C; Kusanur, R; Schwarz, M; Arlt, M

> <Link to Ligand in BindingDB>
http://www.bindingdb.org/bind/chemsearch/marvin/MolStructure.jsp?monomerid=155484

> <Link to Ligand-Target Pair in BindingDB>
http://www.bindingdb.org/jsp/dbsearch/PrimarySearch_ki.jsp?energyterm=kJ/mole&tag=r21&monomerid=155484&enzyme=Dihydroorotate+dehydrogenase&column=ki&startPg=0&Increment=50&submit=Search

> <PubChem CID>
88583216

> <PubChem SID>
253658421

$$$$

  Mrv2115 07222212352D          

 26 28  0  0  0  0            999 V2000
   -1.4289   12.1286    0.0000 C   0  0  0  0  0  0  0  0  0  0  0  0
   -0.7145   11.7161    0.0000 O   0  0  0  0  0  0  0  0  0  0  0  0
   -0.7145   10.8911    0.0000 C   0  0  0  0  0  0  0  0  0  0  0  0
   -0.0000   10.4786    0.0000 C   0  0  0  0  0  0  0  0  0  0  0  0
   -0.0000    9.6536    0.0000 C   0  0  0  0  0  0  0  0  0  0  0  0
   -0.7145    9.2411    0.0000 C   0  0  0  0  0  0  0  0  0  0  0  0
   -0.7145    8.4161    0.0000 C   0  0  0  0  0  0  0  0  0  0  0  0
   -0.0000    8.0036    0.0000 C   0  0  0  0  0  0  0  0  0  0  0  0
   -0.0000    7.1786    0.0000 C   0  0  0  0  0  0  0  0  0  0  0  0
   -0.7145    6.7661    0.0000 C   0  0  0  0  0  0  0  0  0  0  0  0
   -0.7145    5.9411    0.0000 N   0  0  0  0  0  0  0  0  0  0  0  0
   -0.0000    5.5286    0.0000 C   0  0  0  0  0  0  0  0  0  0  0  0
    0.7145    5.9411    0.0000 O   0  0  0  0  0  0  0  0  0  0  0  0
   -0.0000    4.7036    0.0000 C   0  0  0  0  0  0  0  0  0  0  0  0
    0.6674    4.2187    0.0000 C   0  0  0  0  0  0  0  0  0  0  0  0
    1.4521    4.4736    0.0000 C   0  0  0  0  0  0  0  0  0  0  0  0
    1.6236    5.2806    0.0000 O   0  0  0  0  0  0  0  0  0  0  0  0
    2.0652    3.9216    0.0000 O   0  0  0  0  0  0  0  0  0  0  0  0
    0.4125    3.4340    0.0000 C   0  0  0  0  0  0  0  0  0  0  0  0
   -0.4125    3.4340    0.0000 C   0  0  0  0  0  0  0  0  0  0  0  0
   -0.6674    4.2187    0.0000 C   0  0  0  0  0  0  0  0  0  0  0  0
   -1.4289    7.1786    0.0000 C   0  0  0  0  0  0  0  0  0  0  0  0
   -2.1434    6.7661    0.0000 Cl  0  0  0  0  0  0  0  0  0  0  0  0
   -1.4289    8.0036    0.0000 C   0  0  0  0  0  0  0  0  0  0  0  0
   -1.4289    9.6536    0.0000 C   0  0  0  0  0  0  0  0  0  0  0  0
   -1.4289   10.4786    0.0000 C   0  0  0  0  0  0  0  0  0  0  0  0
  1  2  1  0  0  0  0
  2  3  1  0  0  0  0
  3  4  4  0  0  0  0
  4  5  4  0  0  0  0
  5  6  4  0  0  0  0
  6  7  1  0  0  0  0
  7  8  4  0  0  0  0
  8  9  4  0  0  0  0
  9 10  4  0  0  0  0
 10 11  1  0  0  0  0
 11 12  1  0  0  0  0
 12 13  2  0  0  0  0
 12 14  1  0  0  0  0
 14 15  2  0  0  0  0
 15 16  1  0  0  0  0
 16 17  2  0  0  0  0
 16 18  1  0  0  0  0
 15 19  1  0  0  0  0
 19 20  1  0  0  0  0
 20 21  1  0  0  0  0
 14 21  1  0  0  0  0
 10 22  4  0  0  0  0
 22 23  1  0  0  0  0
 22 24  4  0  0  0  0
  7 24  4  0  0  0  0
  6 25  4  0  0  0  0
 25 26  4  0  0  0  0
  3 26  4  0  0  0  0
M  END
> <IC50(uM)>
8.4

> <Outcome>
0.0

> <BindingDB ID>
50251716

> <BindingDB MonomerID>
50137301

> <BindingDB Ligand Name>
2-(3-Chloro-4'-methoxy-biphenyl-4-ylcarbamoyl)-cyclopent-1-enecarboxylic acid::CHEMBL358435

> <Curation/DataSource>
ChEMBL

> <Article DOI>
10.1016/j.bmcl.2003.10.021

> <PMID>
14684297

> <Patent Number>
?

> <Authors>
Leban, J; Saeb, W; Garcia, G; Baumgartner, R; Kramer, B

> <Link to Ligand in BindingDB>
http://www.bindingdb.org/bind/chemsearch/marvin/MolStructure.jsp?monomerid=50137301

> <Link to Ligand-Target Pair in BindingDB>
http://www.bindingdb.org/jsp/dbsearch/PrimarySearch_ki.jsp?energyterm=kJ/mole&tag=r21&monomerid=50137301&enzyme=Dihydroorotate+dehydrogenase&column=ki&startPg=0&Increment=50&submit=Search

> <PubChem CID>
21084746

> <PubChem SID>
104027467

$$$$

  Mrv2115 07222212352D          

 35 38  0  0  0  0            999 V2000
   -0.6284    2.1599    0.0000 C   0  0  0  0  0  0  0  0  0  0  0  0
   -1.4534    2.1599    0.0000 C   0  0  0  0  0  0  0  0  0  0  0  0
   -1.8659    1.4455    0.0000 C   0  0  0  0  0  0  0  0  0  0  0  0
   -2.6909    1.4455    0.0000 C   0  0  0  0  0  0  0  0  0  0  0  0
   -3.1034    2.1599    0.0000 C   0  0  0  0  0  0  0  0  0  0  0  0
   -3.1034    0.7310    0.0000 O   0  0  0  0  0  0  0  0  0  0  0  0
   -2.6909    0.0165    0.0000 C   0  0  0  0  0  0  0  0  0  0  0  0
   -1.8659    0.0165    0.0000 C   0  0  0  0  0  0  0  0  0  0  0  0
   -1.4534   -0.6979    0.0000 C   0  0  0  0  0  0  0  0  0  0  0  0
   -0.6284   -0.6979    0.0000 N   0  0  0  0  0  0  0  0  0  0  0  0
   -0.1435   -1.3654    0.0000 N   0  0  0  0  0  0  0  0  0  0  0  0
    0.6411   -1.1104    0.0000 C   0  0  0  0  0  0  0  0  0  0  0  0
    0.6411   -0.2854    0.0000 N   0  0  0  0  0  0  0  0  0  0  0  0
   -0.1435   -0.0305    0.0000 C   0  0  0  0  0  0  0  0  0  0  0  0
   -0.3984    0.7541    0.0000 O   0  0  0  0  0  0  0  0  0  0  0  0
    1.3556    0.1271    0.0000 C   0  0  0  0  0  0  0  0  0  0  0  0
    2.0701   -0.2854    0.0000 C   0  0  0  0  0  0  0  0  0  0  0  0
    2.0701   -1.1104    0.0000 O   0  0  0  0  0  0  0  0  0  0  0  0
    1.3556   -1.5229    0.0000 C   0  0  0  0  0  0  0  0  0  0  0  0
   -1.8659   -1.4124    0.0000 C   0  0  0  0  0  0  0  0  0  0  0  0
   -1.4534   -2.1269    0.0000 F   0  0  0  0  0  0  0  0  0  0  0  0
   -2.6909   -1.4124    0.0000 C   0  0  0  0  0  0  0  0  0  0  0  0
   -3.1034   -0.6979    0.0000 C   0  0  0  0  0  0  0  0  0  0  0  0
   -3.9284   -0.6979    0.0000 C   0  0  0  0  0  0  0  0  0  0  0  0
   -4.3409    0.0165    0.0000 O   0  0  0  0  0  0  0  0  0  0  0  0
   -4.3409   -1.4124    0.0000 N   0  0  0  0  0  0  0  0  0  0  0  0
   -3.9284   -2.1269    0.0000 C   0  0  0  0  0  0  0  0  0  0  0  0
   -3.1034   -2.1269    0.0000 C   0  0  0  0  0  0  0  0  0  0  0  0
   -2.6909   -2.8414    0.0000 N   0  0  0  0  0  0  0  0  0  0  0  0
   -3.1034   -3.5558    0.0000 C   0  0  0  0  0  0  0  0  0  0  0  0
   -2.6909   -4.2703    0.0000 O   0  0  0  0  0  0  0  0  0  0  0  0
   -1.8659   -4.2703    0.0000 C   0  0  0  0  0  0  0  0  0  0  0  0
   -3.9284   -3.5558    0.0000 C   0  0  0  0  0  0  0  0  0  0  0  0
   -4.3409   -2.8414    0.0000 C   0  0  0  0  0  0  0  0  0  0  0  0
   -5.1659   -2.8414    0.0000 C   0  0  0  0  0  0  0  0  0  0  0  0
  1  2  1  0  0  0  0
  2  3  1  0  0  0  0
  3  4  1  0  0  0  0
  4  5  1  0  0  0  0
  4  6  1  0  0  0  0
  6  7  1  0  0  0  0
  7  8  4  0  0  0  0
  8  9  4  0  0  0  0
  9 10  1  0  0  0  0
 10 11  4  0  0  0  0
 11 12  4  0  0  0  0
 12 13  4  0  0  0  0
 13 14  4  0  0  0  0
 10 14  4  0  0  0  0
 14 15  2  0  0  0  0
 13 16  1  0  0  0  0
 16 17  1  0  0  0  0
 17 18  1  0  0  0  0
 18 19  1  0  0  0  0
 12 19  1  0  0  0  0
  9 20  4  0  0  0  0
 20 21  1  0  0  0  0
 20 22  4  0  0  0  0
 22 23  4  0  0  0  0
  7 23  4  0  0  0  0
 23 24  1  0  0  0  0
 24 25  2  0  0  0  0
 24 26  1  0  0  0  0
 26 27  1  0  0  0  0
 27 28  4  0  0  0  0
 28 29  4  0  0  0  0
 29 30  4  0  0  0  0
 30 31  1  0  0  0  0
 31 32  1  0  0  0  0
 30 33  4  0  0  0  0
 33 34  4  0  0  0  0
 27 34  4  0  0  0  0
 34 35  1  0  0  0  0
M  END
> <IC50(uM)>
0.075

> <Outcome>
1.0

> <BindingDB ID>
1020604

> <BindingDB MonomerID>
490543

> <BindingDB Ligand Name>
5-fluoro-N-(6-methoxy-4-methylpyridin-3-yl)-4-(3-oxo-5,6-dihydro-3H-[1,2,4]triazolo[3,4-c]-[1,4]oxazin-2(8H)-yl)-2-[(2S)-pentan-2-yloxy]benzamide::US10968216, Example 211

> <Curation/DataSource>
US Patent

> <Article DOI>
?

> <PMID>
?

> <Patent Number>
US10968216

> <Authors>
Gradl, SN; Nguyen, D; Eis, K; Gunther, J; Stellfeld, T; Janzer, A; Christian, S; Mueller, T; Sheikh, SE; Zhou, HJ; Zhao, C; Sykes, DB; Ferrara, SJ; Liu, K; Herbert, SA; Merz, C; Niehues, M; Nising, CF; Schafer, M; Zimmermann, K; Knablein, J; Thede, K; Faupel, T

> <Link to Ligand in BindingDB>
http://www.bindingdb.org/bind/chemsearch/marvin/MolStructure.jsp?monomerid=490543

> <Link to Ligand-Target Pair in BindingDB>
http://www.bindingdb.org/jsp/dbsearch/PrimarySearch_ki.jsp?energyterm=kJ/mole&tag=r21&monomerid=490543&enzyme=Dihydroorotate+dehydrogenase&column=ki&startPg=0&Increment=50&submit=Search

> <PubChem CID>
134474417

> <PubChem SID>
447117269

$$$$

  Mrv2115 07222212352D          

 28 32  0  0  0  0            999 V2000
   -3.2442   -4.5254    0.0000 C   0  0  0  0  0  0  0  0  0  0  0  0
   -3.8573   -3.9734    0.0000 C   0  0  0  0  0  0  0  0  0  0  0  0
   -4.6419   -4.2284    0.0000 C   0  0  0  0  0  0  0  0  0  0  0  0
   -5.2550   -3.6763    0.0000 C   0  0  0  0  0  0  0  0  0  0  0  0
   -5.0835   -2.8694    0.0000 C   0  0  0  0  0  0  0  0  0  0  0  0
   -4.2989   -2.6144    0.0000 C   0  0  0  0  0  0  0  0  0  0  0  0
   -3.6858   -3.1664    0.0000 C   0  0  0  0  0  0  0  0  0  0  0  0
   -2.9011   -2.9115    0.0000 N   0  0  0  0  0  0  0  0  0  0  0  0
   -2.2337   -3.3964    0.0000 N   0  0  0  0  0  0  0  0  0  0  0  0
   -1.5663   -2.9115    0.0000 C   0  0  0  0  0  0  0  0  0  0  0  0
   -1.8212   -2.1269    0.0000 C   0  0  0  0  0  0  0  0  0  0  0  0
   -2.6462   -2.1269    0.0000 C   0  0  0  0  0  0  0  0  0  0  0  0
   -3.0587   -1.4124    0.0000 C   0  0  0  0  0  0  0  0  0  0  0  0
   -2.6462   -0.6979    0.0000 C   0  0  0  0  0  0  0  0  0  0  0  0
   -1.8212   -0.6979    0.0000 C   0  0  0  0  0  0  0  0  0  0  0  0
   -1.4087   -1.4124    0.0000 C   0  0  0  0  0  0  0  0  0  0  0  0
   -0.5837   -1.4124    0.0000 N   0  0  0  0  0  0  0  0  0  0  0  0
   -0.1712   -0.6979    0.0000 C   0  0  0  0  0  0  0  0  0  0  0  0
   -0.5837    0.0165    0.0000 O   0  0  0  0  0  0  0  0  0  0  0  0
    0.6538   -0.6979    0.0000 C   0  0  0  0  0  0  0  0  0  0  0  0
    1.1387   -0.0305    0.0000 C   0  0  0  0  0  0  0  0  0  0  0  0
    1.9233   -0.2854    0.0000 C   0  0  0  0  0  0  0  0  0  0  0  0
    2.6378    0.1271    0.0000 C   0  0  0  0  0  0  0  0  0  0  0  0
    3.3523   -0.2854    0.0000 C   0  0  0  0  0  0  0  0  0  0  0  0
    3.3523   -1.1104    0.0000 C   0  0  0  0  0  0  0  0  0  0  0  0
    2.6378   -1.5229    0.0000 C   0  0  0  0  0  0  0  0  0  0  0  0
    1.9233   -1.1104    0.0000 C   0  0  0  0  0  0  0  0  0  0  0  0
    1.1387   -1.3654    0.0000 O   0  0  0  0  0  0  0  0  0  0  0  0
  1  2  1  0  0  0  0
  2  3  4  0  0  0  0
  3  4  4  0  0  0  0
  4  5  4  0  0  0  0
  5  6  4  0  0  0  0
  6  7  4  0  0  0  0
  2  7  4  0  0  0  0
  7  8  1  0  0  0  0
  8  9  4  0  0  0  0
  9 10  4  0  0  0  0
 10 11  4  0  0  0  0
 11 12  4  0  0  0  0
  8 12  4  0  0  0  0
 12 13  1  0  0  0  0
 13 14  1  0  0  0  0
 14 15  1  0  0  0  0
 15 16  1  0  0  0  0
 11 16  1  0  0  0  0
 16 17  1  0  0  0  0
 17 18  1  0  0  0  0
 18 19  2  0  0  0  0
 18 20  1  0  0  0  0
 20 21  2  0  0  0  0
 21 22  1  0  0  0  0
 22 23  1  0  0  0  0
 23 24  2  0  0  0  0
 24 25  1  0  0  0  0
 25 26  2  0  0  0  0
 26 27  1  0  0  0  0
 22 27  1  0  0  0  0
 27 28  1  0  0  0  0
 20 28  1  0  0  0  0
M  END
> <IC50(uM)>
0.124

> <Outcome>
1.0

> <BindingDB ID>
993085

> <BindingDB MonomerID>
477587

> <BindingDB Ligand Name>
N-[(4R)-1-(2-methylphenyl)-4,5,6,7-tetrahydro-1H-indazol-4-yl]-1-benzofuran-2-carboxamide::US10889564, Example 17

> <Curation/DataSource>
US Patent

> <Article DOI>
?

> <PMID>
?

> <Patent Number>
US10889564

> <Authors>
Lain, S; Drummond, C; Leeuwen, IV; Haraldsson, M; Johansson, L; Sandberg, L; Yngve, U

> <Link to Ligand in BindingDB>
http://www.bindingdb.org/bind/chemsearch/marvin/MolStructure.jsp?monomerid=477587

> <Link to Ligand-Target Pair in BindingDB>
http://www.bindingdb.org/jsp/dbsearch/PrimarySearch_ki.jsp?energyterm=kJ/mole&tag=r21&monomerid=477587&enzyme=Dihydroorotate+dehydrogenase&column=ki&startPg=0&Increment=50&submit=Search

> <PubChem CID>
138646844

> <PubChem SID>
442137204

$$$$

  Mrv2115 07222212352D          

 29 32  0  0  0  0            999 V2000
   -4.2868    2.4750    0.0000 C   0  0  0  0  0  0  0  0  0  0  0  0
   -3.5724    2.0625    0.0000 C   0  0  0  0  0  0  0  0  0  0  0  0
   -2.8579    2.4750    0.0000 C   0  0  0  0  0  0  0  0  0  0  0  0
   -2.1434    2.0625    0.0000 C   0  0  0  0  0  0  0  0  0  0  0  0
   -2.1434    1.2375    0.0000 C   0  0  0  0  0  0  0  0  0  0  0  0
   -1.4289    0.8250    0.0000 C   0  0  0  0  0  0  0  0  0  0  0  0
   -0.7145    1.2375    0.0000 C   0  0  0  0  0  0  0  0  0  0  0  0
    0.0000    0.8250    0.0000 C   0  0  0  0  0  0  0  0  0  0  0  0
    0.0000   -0.0000    0.0000 C   0  0  0  0  0  0  0  0  0  0  0  0
    0.7145   -0.4125    0.0000 C   0  0  0  0  0  0  0  0  0  0  0  0
    1.4289    0.0000    0.0000 N   0  0  0  0  0  0  0  0  0  0  0  0
    2.1434   -0.4125    0.0000 C   0  0  0  0  0  0  0  0  0  0  0  0
    2.8579    0.0000    0.0000 C   0  0  0  0  0  0  0  0  0  0  0  0
    3.5724   -0.4125    0.0000 C   0  0  0  0  0  0  0  0  0  0  0  0
    3.5724   -1.2375    0.0000 C   0  0  0  0  0  0  0  0  0  0  0  0
    4.2868   -1.6500    0.0000 Cl  0  0  0  0  0  0  0  0  0  0  0  0
    2.8579   -1.6500    0.0000 C   0  0  0  0  0  0  0  0  0  0  0  0
    2.1434   -1.2375    0.0000 C   0  0  0  0  0  0  0  0  0  0  0  0
    1.4289   -1.6500    0.0000 C   0  0  0  0  0  0  0  0  0  0  0  0
    1.4289   -2.4750    0.0000 C   0  0  0  0  0  0  0  0  0  0  0  0
    0.7145   -2.8875    0.0000 O   0  0  0  0  0  0  0  0  0  0  0  0
    2.1434   -2.8875    0.0000 O   0  0  0  0  0  0  0  0  0  0  0  0
    0.7145   -1.2375    0.0000 C   0  0  0  0  0  0  0  0  0  0  0  0
    0.0000   -1.6500    0.0000 C   0  0  0  0  0  0  0  0  0  0  0  0
   -0.7145   -0.4125    0.0000 C   0  0  0  0  0  0  0  0  0  0  0  0
   -1.4289   -0.0000    0.0000 C   0  0  0  0  0  0  0  0  0  0  0  0
   -2.8579    0.8250    0.0000 C   0  0  0  0  0  0  0  0  0  0  0  0
   -2.8579   -0.0000    0.0000 Cl  0  0  0  0  0  0  0  0  0  0  0  0
   -3.5724    1.2375    0.0000 N   0  0  0  0  0  0  0  0  0  0  0  0
  1  2  1  0  0  0  0
  2  3  4  0  0  0  0
  3  4  4  0  0  0  0
  4  5  4  0  0  0  0
  5  6  1  0  0  0  0
  6  7  4  0  0  0  0
  7  8  4  0  0  0  0
  8  9  4  0  0  0  0
  9 10  1  0  0  0  0
 10 11  4  0  0  0  0
 11 12  4  0  0  0  0
 12 13  4  0  0  0  0
 13 14  4  0  0  0  0
 14 15  4  0  0  0  0
 15 16  1  0  0  0  0
 15 17  4  0  0  0  0
 17 18  4  0  0  0  0
 12 18  4  0  0  0  0
 18 19  4  0  0  0  0
 19 20  1  0  0  0  0
 20 21  2  0  0  0  0
 20 22  1  0  0  0  0
 19 23  4  0  0  0  0
 10 23  4  0  0  0  0
 23 24  1  0  0  0  0
  9 25  4  0  0  0  0
 25 26  4  0  0  0  0
  6 26  4  0  0  0  0
  5 27  4  0  0  0  0
 27 28  1  0  0  0  0
 27 29  4  0  0  0  0
  2 29  4  0  0  0  0
M  END
> <IC50(uM)>
0.074

> <Outcome>
1.0

> <BindingDB ID>
51126194

> <BindingDB MonomerID>
50461880

> <BindingDB Ligand Name>
CHEMBL4227841

> <Curation/DataSource>
ChEMBL

> <Article DOI>
10.1021/acs.jmedchem.7b01862

> <PMID>
29727569

> <Patent Number>
?

> <Authors>
Madak, JT; Cuthbertson, CR; Miyata, Y; Tamura, S; Petrunak, EM; Stuckey, JA; Han, Y; He, M; Sun, D; Showalter, HD; Neamati, N

> <Link to Ligand in BindingDB>
http://www.bindingdb.org/bind/chemsearch/marvin/MolStructure.jsp?monomerid=50461880

> <Link to Ligand-Target Pair in BindingDB>
http://www.bindingdb.org/jsp/dbsearch/PrimarySearch_ki.jsp?energyterm=kJ/mole&tag=r21&monomerid=50461880&enzyme=Dihydroorotate+dehydrogenase&column=ki&startPg=0&Increment=50&submit=Search

> <PubChem CID>
145969551

> <PubChem SID>
433929145

$$$$

  Mrv2115 07222212352D          

 24 26  0  0  0  0            999 V2000
    3.5724   -0.4125    0.0000 C   0  0  0  0  0  0  0  0  0  0  0  0
    3.5724   -1.2375    0.0000 C   0  0  0  0  0  0  0  0  0  0  0  0
    4.2868   -1.6500    0.0000 C   0  0  0  0  0  0  0  0  0  0  0  0
    4.2868   -2.4750    0.0000 C   0  0  0  0  0  0  0  0  0  0  0  0
    3.5724   -2.8875    0.0000 C   0  0  0  0  0  0  0  0  0  0  0  0
    3.5724   -3.7125    0.0000 N   0  0  0  0  0  0  0  0  0  0  0  0
    4.2868   -4.1250    0.0000 C   0  0  0  0  0  0  0  0  0  0  0  0
    5.0013   -3.7125    0.0000 C   0  0  0  0  0  0  0  0  0  0  0  0
    5.7158   -4.1250    0.0000 C   0  0  0  0  0  0  0  0  0  0  0  0
    6.4302   -3.7125    0.0000 Cl  0  0  0  0  0  0  0  0  0  0  0  0
    5.7158   -4.9500    0.0000 C   0  0  0  0  0  0  0  0  0  0  0  0
    5.0013   -5.3625    0.0000 N   0  0  0  0  0  0  0  0  0  0  0  0
    4.2868   -4.9500    0.0000 C   0  0  0  0  0  0  0  0  0  0  0  0
    3.5724   -5.3625    0.0000 C   0  0  0  0  0  0  0  0  0  0  0  0
    3.5724   -6.1875    0.0000 C   0  0  0  0  0  0  0  0  0  0  0  0
    2.8579   -6.6000    0.0000 C   0  0  0  0  0  0  0  0  0  0  0  0
    2.1434   -6.1875    0.0000 C   0  0  0  0  0  0  0  0  0  0  0  0
    2.1434   -5.3625    0.0000 C   0  0  0  0  0  0  0  0  0  0  0  0
    2.8579   -4.9500    0.0000 C   0  0  0  0  0  0  0  0  0  0  0  0
    2.8579   -2.4750    0.0000 C   0  0  0  0  0  0  0  0  0  0  0  0
    2.1434   -2.8875    0.0000 C   0  0  0  0  0  0  0  0  0  0  0  0
    1.4289   -2.4750    0.0000 O   0  0  0  0  0  0  0  0  0  0  0  0
    2.1434   -3.7125    0.0000 O   0  0  0  0  0  0  0  0  0  0  0  0
    2.8579   -1.6500    0.0000 C   0  0  0  0  0  0  0  0  0  0  0  0
  1  2  1  0  0  0  0
  2  3  4  0  0  0  0
  3  4  4  0  0  0  0
  4  5  4  0  0  0  0
  5  6  1  0  0  0  0
  6  7  1  0  0  0  0
  7  8  4  0  0  0  0
  8  9  4  0  0  0  0
  9 10  1  0  0  0  0
  9 11  4  0  0  0  0
 11 12  4  0  0  0  0
 12 13  4  0  0  0  0
  7 13  4  0  0  0  0
 13 14  1  0  0  0  0
 14 15  4  0  0  0  0
 15 16  4  0  0  0  0
 16 17  4  0  0  0  0
 17 18  4  0  0  0  0
 18 19  4  0  0  0  0
 14 19  4  0  0  0  0
  5 20  4  0  0  0  0
 20 21  1  0  0  0  0
 21 22  2  0  0  0  0
 21 23  1  0  0  0  0
 20 24  4  0  0  0  0
  2 24  4  0  0  0  0
M  END
> <IC50(uM)>
0.062

> <Outcome>
1.0

> <BindingDB ID>
219983

> <BindingDB MonomerID>
102453

> <BindingDB Ligand Name>
US8536165, 18

> <Curation/DataSource>
US Patent

> <Article DOI>
?

> <PMID>
?

> <Patent Number>
US8536165

> <Authors>
Castro Palomino Laria, JC; Terricabras Belart, E; Erra Sola, M; Navarro Romero, E; Fonquerna Pou, S; Cardus Figueras, A; Lozoya Toribio, ME

> <Link to Ligand in BindingDB>
http://www.bindingdb.org/bind/chemsearch/marvin/MolStructure.jsp?monomerid=102453

> <Link to Ligand-Target Pair in BindingDB>
http://www.bindingdb.org/jsp/dbsearch/PrimarySearch_ki.jsp?energyterm=kJ/mole&tag=r21&monomerid=102453&enzyme=Dihydroorotate+dehydrogenase&column=ki&startPg=0&Increment=50&submit=Search

> <PubChem CID>
46847428

> <PubChem SID>
172097744

$$$$

  Mrv2115 07222212352D          

 34 37  0  0  0  0            999 V2000
   -5.1659   -2.8414    0.0000 C   0  0  0  0  0  0  0  0  0  0  0  0
   -5.5784   -2.1269    0.0000 C   0  0  0  0  0  0  0  0  0  0  0  0
   -6.4034   -2.1269    0.0000 C   0  0  0  0  0  0  0  0  0  0  0  0
   -6.8159   -1.4124    0.0000 C   0  0  0  0  0  0  0  0  0  0  0  0
   -6.4034   -0.6979    0.0000 C   0  0  0  0  0  0  0  0  0  0  0  0
   -5.5784   -0.6979    0.0000 C   0  0  0  0  0  0  0  0  0  0  0  0
   -5.1659   -1.4124    0.0000 C   0  0  0  0  0  0  0  0  0  0  0  0
   -4.3409   -1.4124    0.0000 N   0  0  0  0  0  0  0  0  0  0  0  0
   -3.9284   -0.6979    0.0000 C   0  0  0  0  0  0  0  0  0  0  0  0
   -4.3409    0.0165    0.0000 O   0  0  0  0  0  0  0  0  0  0  0  0
   -3.1034   -0.6979    0.0000 C   0  0  0  0  0  0  0  0  0  0  0  0
   -2.6909    0.0165    0.0000 C   0  0  0  0  0  0  0  0  0  0  0  0
   -1.8659    0.0165    0.0000 C   0  0  0  0  0  0  0  0  0  0  0  0
   -1.4534    0.7310    0.0000 F   0  0  0  0  0  0  0  0  0  0  0  0
   -1.4534   -0.6979    0.0000 C   0  0  0  0  0  0  0  0  0  0  0  0
   -0.6284   -0.6979    0.0000 N   0  0  0  0  0  0  0  0  0  0  0  0
   -0.1435   -1.3654    0.0000 N   0  0  0  0  0  0  0  0  0  0  0  0
    0.6411   -1.1104    0.0000 C   0  0  0  0  0  0  0  0  0  0  0  0
    0.6411   -0.2854    0.0000 N   0  0  0  0  0  0  0  0  0  0  0  0
   -0.1435   -0.0305    0.0000 C   0  0  0  0  0  0  0  0  0  0  0  0
   -0.3984    0.7541    0.0000 O   0  0  0  0  0  0  0  0  0  0  0  0
    1.3556    0.1271    0.0000 C   0  0  0  0  0  0  0  0  0  0  0  0
    2.0701   -0.2854    0.0000 C   0  0  0  0  0  0  0  0  0  0  0  0
    2.0701   -1.1104    0.0000 C   0  0  0  0  0  0  0  0  0  0  0  0
    1.3556   -1.5229    0.0000 C   0  0  0  0  0  0  0  0  0  0  0  0
   -1.8659   -1.4124    0.0000 C   0  0  0  0  0  0  0  0  0  0  0  0
   -2.6909   -1.4124    0.0000 C   0  0  0  0  0  0  0  0  0  0  0  0
   -3.1034   -2.1269    0.0000 O   0  0  0  0  0  0  0  0  0  0  0  0
   -2.6909   -2.8414    0.0000 C   0  0  0  0  0  0  0  0  0  0  0  0
   -1.8659   -2.8414    0.0000 C   0  0  0  0  0  0  0  0  0  0  0  0
   -3.1034   -3.5558    0.0000 C   0  0  0  0  0  0  0  0  0  0  0  0
   -2.6909   -4.2703    0.0000 N   0  0  0  0  0  0  0  0  0  0  0  0
   -1.8659   -4.2703    0.0000 C   0  0  0  0  0  0  0  0  0  0  0  0
   -3.1034   -4.9848    0.0000 C   0  0  0  0  0  0  0  0  0  0  0  0
  1  2  1  0  0  0  0
  2  3  4  0  0  0  0
  3  4  4  0  0  0  0
  4  5  4  0  0  0  0
  5  6  4  0  0  0  0
  6  7  4  0  0  0  0
  2  7  4  0  0  0  0
  7  8  1  0  0  0  0
  8  9  1  0  0  0  0
  9 10  2  0  0  0  0
  9 11  1  0  0  0  0
 11 12  4  0  0  0  0
 12 13  4  0  0  0  0
 13 14  1  0  0  0  0
 13 15  4  0  0  0  0
 15 16  1  0  0  0  0
 16 17  4  0  0  0  0
 17 18  4  0  0  0  0
 18 19  4  0  0  0  0
 19 20  4  0  0  0  0
 16 20  4  0  0  0  0
 20 21  2  0  0  0  0
 19 22  1  0  0  0  0
 22 23  1  0  0  0  0
 23 24  1  0  0  0  0
 24 25  1  0  0  0  0
 18 25  1  0  0  0  0
 15 26  4  0  0  0  0
 26 27  4  0  0  0  0
 11 27  4  0  0  0  0
 27 28  1  0  0  0  0
 28 29  1  0  0  0  0
 29 30  1  0  0  0  0
 29 31  1  0  0  0  0
 31 32  1  0  0  0  0
 32 33  1  0  0  0  0
 32 34  1  0  0  0  0
M  END
> <IC50(uM)>
0.016

> <Outcome>
1.0

> <BindingDB ID>
1020682

> <BindingDB MonomerID>
490608

> <BindingDB Ligand Name>
2-{[(2S)-1-(dimethylamino)propan-2-yl]oxy}-5-fluoro-N-(2-methylphenyl)-4-(3-oxo-5,6,7,8-tetrahydro[1,2,4]triazolo[4,3-a]pyridin-2(3H)-yl)benzamide::US10968216, Example 276

> <Curation/DataSource>
US Patent

> <Article DOI>
?

> <PMID>
?

> <Patent Number>
US10968216

> <Authors>
Gradl, SN; Nguyen, D; Eis, K; Gunther, J; Stellfeld, T; Janzer, A; Christian, S; Mueller, T; Sheikh, SE; Zhou, HJ; Zhao, C; Sykes, DB; Ferrara, SJ; Liu, K; Herbert, SA; Merz, C; Niehues, M; Nising, CF; Schafer, M; Zimmermann, K; Knablein, J; Thede, K; Faupel, T

> <Link to Ligand in BindingDB>
http://www.bindingdb.org/bind/chemsearch/marvin/MolStructure.jsp?monomerid=490608

> <Link to Ligand-Target Pair in BindingDB>
http://www.bindingdb.org/jsp/dbsearch/PrimarySearch_ki.jsp?energyterm=kJ/mole&tag=r21&monomerid=490608&enzyme=Dihydroorotate+dehydrogenase&column=ki&startPg=0&Increment=50&submit=Search

> <PubChem CID>
134474074

> <PubChem SID>
447117334

$$$$

  Mrv2115 07222212352D          

 27 30  0  0  0  0            999 V2000
    3.9934    2.4750    0.0000 O   0  0  0  0  0  0  0  0  0  0  0  0
    3.2789    2.0625    0.0000 C   0  0  0  0  0  0  0  0  0  0  0  0
    2.5645    2.4750    0.0000 O   0  0  0  0  0  0  0  0  0  0  0  0
    3.2789    1.2375    0.0000 C   0  0  0  0  0  0  0  0  0  0  0  0
    3.9934    0.8250    0.0000 C   0  0  0  0  0  0  0  0  0  0  0  0
    3.9934    0.0000    0.0000 C   0  0  0  0  0  0  0  0  0  0  0  0
    4.7079   -0.4125    0.0000 F   0  0  0  0  0  0  0  0  0  0  0  0
    3.2789   -0.4125    0.0000 C   0  0  0  0  0  0  0  0  0  0  0  0
    2.5645    0.0000    0.0000 C   0  0  0  0  0  0  0  0  0  0  0  0
    1.7798   -0.2549    0.0000 N   0  0  0  0  0  0  0  0  0  0  0  0
    1.2949    0.4125    0.0000 C   0  0  0  0  0  0  0  0  0  0  0  0
    0.4699    0.4125    0.0000 C   0  0  0  0  0  0  0  0  0  0  0  0
    0.0574   -0.3020    0.0000 C   0  0  0  0  0  0  0  0  0  0  0  0
    0.4699   -1.0164    0.0000 F   0  0  0  0  0  0  0  0  0  0  0  0
   -0.7676   -0.3020    0.0000 C   0  0  0  0  0  0  0  0  0  0  0  0
   -1.1801    0.4125    0.0000 C   0  0  0  0  0  0  0  0  0  0  0  0
   -2.0051    0.4125    0.0000 C   0  0  0  0  0  0  0  0  0  0  0  0
   -2.4176   -0.3020    0.0000 C   0  0  0  0  0  0  0  0  0  0  0  0
   -3.2426   -0.3020    0.0000 C   0  0  0  0  0  0  0  0  0  0  0  0
   -3.6551    0.4125    0.0000 C   0  0  0  0  0  0  0  0  0  0  0  0
   -3.2426    1.1270    0.0000 C   0  0  0  0  0  0  0  0  0  0  0  0
   -2.4176    1.1270    0.0000 C   0  0  0  0  0  0  0  0  0  0  0  0
   -0.7676    1.1270    0.0000 C   0  0  0  0  0  0  0  0  0  0  0  0
    0.0574    1.1270    0.0000 C   0  0  0  0  0  0  0  0  0  0  0  0
    0.4699    1.8414    0.0000 F   0  0  0  0  0  0  0  0  0  0  0  0
    1.7798    1.0799    0.0000 N   0  0  0  0  0  0  0  0  0  0  0  0
    2.5645    0.8250    0.0000 C   0  0  0  0  0  0  0  0  0  0  0  0
  1  2  2  0  0  0  0
  2  3  1  0  0  0  0
  2  4  1  0  0  0  0
  4  5  4  0  0  0  0
  5  6  4  0  0  0  0
  6  7  1  0  0  0  0
  6  8  4  0  0  0  0
  8  9  4  0  0  0  0
  9 10  4  0  0  0  0
 10 11  4  0  0  0  0
 11 12  1  0  0  0  0
 12 13  4  0  0  0  0
 13 14  1  0  0  0  0
 13 15  4  0  0  0  0
 15 16  4  0  0  0  0
 16 17  1  0  0  0  0
 17 18  4  0  0  0  0
 18 19  4  0  0  0  0
 19 20  4  0  0  0  0
 20 21  4  0  0  0  0
 21 22  4  0  0  0  0
 17 22  4  0  0  0  0
 16 23  4  0  0  0  0
 23 24  4  0  0  0  0
 12 24  4  0  0  0  0
 24 25  1  0  0  0  0
 11 26  4  0  0  0  0
 26 27  4  0  0  0  0
  4 27  4  0  0  0  0
  9 27  4  0  0  0  0
M  STY  1   1 DAT
M  SAL   1  1  10
M  SDT   1 MRV_IMPLICIT_H                                        
M  SDD   1     0.5304   -0.4125    DR    ALL  0       0  
M  SED   1 IMPL_H1
M  END
> <IC50(uM)>
0.276

> <Outcome>
1.0

> <BindingDB ID>
297780

> <BindingDB MonomerID>
155436

> <BindingDB Ligand Name>
US9006454, I68

> <Curation/DataSource>
US Patent

> <Article DOI>
?

> <PMID>
?

> <Patent Number>
US9006454

> <Authors>
Thunuguntla, SS; Subramanya, H; Kunnam, SR; Sanivaru Vijay, SR; Bingi, C; Kusanur, R; Schwarz, M; Arlt, M

> <Link to Ligand in BindingDB>
http://www.bindingdb.org/bind/chemsearch/marvin/MolStructure.jsp?monomerid=155436

> <Link to Ligand-Target Pair in BindingDB>
http://www.bindingdb.org/jsp/dbsearch/PrimarySearch_ki.jsp?energyterm=kJ/mole&tag=r21&monomerid=155436&enzyme=Dihydroorotate+dehydrogenase&column=ki&startPg=0&Increment=50&submit=Search

> <PubChem CID>
46947189

> <PubChem SID>
253658373

$$$$

  Mrv2115 07222212352D          

 31 32  0  0  0  0            999 V2000
    0.0000   -4.9500    0.0000 C   0  0  0  0  0  0  0  0  0  0  0  0
    0.7145   -4.5375    0.0000 C   0  0  0  0  0  0  0  0  0  0  0  0
    1.4289   -4.9500    0.0000 C   0  0  0  0  0  0  0  0  0  0  0  0
    0.7145   -3.7125    0.0000 C   0  0  0  0  0  0  0  0  0  0  0  0
    1.4289   -3.3000    0.0000 C   0  0  0  0  0  0  0  0  0  0  0  0
    2.1434   -3.7125    0.0000 C   0  0  0  0  0  0  0  0  0  0  0  0
    1.4289   -2.4750    0.0000 O   0  0  0  0  0  0  0  0  0  0  0  0
    0.7145   -2.0625    0.0000 C   0  0  0  0  0  0  0  0  0  0  0  0
    0.0000   -2.4750    0.0000 C   0  0  0  0  0  0  0  0  0  0  0  0
   -0.7145   -2.0625    0.0000 C   0  0  0  0  0  0  0  0  0  0  0  0
   -1.4289   -2.4750    0.0000 N   0  0  0  0  0  0  0  0  0  0  0  0
   -1.5152   -3.2955    0.0000 N   0  0  0  0  0  0  0  0  0  0  0  0
   -2.3221   -3.4670    0.0000 C   0  0  0  0  0  0  0  0  0  0  0  0
   -2.6577   -4.2207    0.0000 C   0  0  0  0  0  0  0  0  0  0  0  0
   -3.4782   -4.3069    0.0000 C   0  0  0  0  0  0  0  0  0  0  0  0
   -2.1728   -4.8881    0.0000 C   0  0  0  0  0  0  0  0  0  0  0  0
   -2.7346   -2.7525    0.0000 N   0  0  0  0  0  0  0  0  0  0  0  0
   -3.5551   -2.6663    0.0000 C   0  0  0  0  0  0  0  0  0  0  0  0
   -2.1826   -2.1394    0.0000 C   0  0  0  0  0  0  0  0  0  0  0  0
   -2.3541   -1.3325    0.0000 O   0  0  0  0  0  0  0  0  0  0  0  0
   -0.7145   -1.2375    0.0000 C   0  0  0  0  0  0  0  0  0  0  0  0
   -1.4289   -0.8250    0.0000 F   0  0  0  0  0  0  0  0  0  0  0  0
    0.0000   -0.8250    0.0000 C   0  0  0  0  0  0  0  0  0  0  0  0
    0.7145   -1.2375    0.0000 C   0  0  0  0  0  0  0  0  0  0  0  0
    1.4289   -0.8250    0.0000 C   0  0  0  0  0  0  0  0  0  0  0  0
    1.4289    0.0000    0.0000 O   0  0  0  0  0  0  0  0  0  0  0  0
    2.1434   -1.2375    0.0000 N   0  0  0  0  0  0  0  0  0  0  0  0
    2.8579   -0.8250    0.0000 C   0  0  0  0  0  0  0  0  0  0  0  0
    3.5724   -1.2375    0.0000 C   0  0  0  0  0  0  0  0  0  0  0  0
    3.5724   -2.0625    0.0000 C   0  0  0  0  0  0  0  0  0  0  0  0
    4.2868   -0.8250    0.0000 O   0  0  0  0  0  0  0  0  0  0  0  0
  1  2  1  0  0  0  0
  2  3  1  0  0  0  0
  2  4  1  0  0  0  0
  4  5  1  0  0  0  0
  5  6  1  0  0  0  0
  5  7  1  0  0  0  0
  7  8  1  0  0  0  0
  8  9  4  0  0  0  0
  9 10  4  0  0  0  0
 10 11  1  0  0  0  0
 11 12  4  0  0  0  0
 12 13  4  0  0  0  0
 13 14  1  0  0  0  0
 14 15  1  0  0  0  0
 14 16  1  0  0  0  0
 13 17  4  0  0  0  0
 17 18  1  0  0  0  0
 17 19  4  0  0  0  0
 11 19  4  0  0  0  0
 19 20  2  0  0  0  0
 10 21  4  0  0  0  0
 21 22  1  0  0  0  0
 21 23  4  0  0  0  0
 23 24  4  0  0  0  0
  8 24  4  0  0  0  0
 24 25  1  0  0  0  0
 25 26  2  0  0  0  0
 25 27  1  0  0  0  0
 27 28  1  0  0  0  0
 28 29  1  0  0  0  0
 29 30  1  0  0  0  0
 29 31  1  0  0  0  0
M  END
> <IC50(uM)>
9.7

> <Outcome>
0.0

> <BindingDB ID>
1098773; 972619; 972618; 1098772

> <BindingDB MonomerID>
470504

> <BindingDB Ligand Name>
5-fluoro-N-(2-hydroxypropyl)-4-[4-methyl-5-oxo-3-(propan-2-yl)-4,5-dihydro-1H-1,2,4-triazol-1-yl]-2-{[(2S)-4-methylpentan-2-yl]oxy}benzamide, Mixture of Stereoisomers::US10815215, Example 159::US11130745, Example 159; 5-fluoro-N-(2-hydroxypropyl)-4-[4-methyl-5-oxo-3-(propan-2-yl)-4,5-dihydro-1H-1,2,4-triazol-1-yl]-2-{[(2S)-4-methylpentan-2-yl]oxy}benzamide, Mixture of Stereoisomers::US10815215, Example 159

> <Curation/DataSource>
US Patent

> <Article DOI>
?

> <PMID>
?

> <Patent Number>
US11130745; US10815215

> <Authors>
Gradl, SN; Nguyen, D; Eis, K; Gunther, J; Stellfeld, T; Janzer, A; Christian, S; Muller, T; Sheikh, SE; Sykes, DB; Ferrara, SJ; Krober, M; Merz, C; Niehues, M; Schafer, M; Zimmermann, K; Nising, CF; Gradl, SN; Nguyen, D; Eis, K; Gunther, J; Stellfeld, T; Janzer, A; Christian, S; Muller, T; Sheikh, SE; Zhou, HJ; Zhao, C; Sykes, DB; Ferrara, SJ; Liu, K; Krober, M; Merz, C; Niehues, M; Schafer, M; Zimmermann, K; Nising, CF

> <Link to Ligand in BindingDB>
http://www.bindingdb.org/bind/chemsearch/marvin/MolStructure.jsp?monomerid=470504

> <Link to Ligand-Target Pair in BindingDB>
http://www.bindingdb.org/jsp/dbsearch/PrimarySearch_ki.jsp?energyterm=kJ/mole&tag=r21&monomerid=470504&enzyme=Dihydroorotate+dehydrogenase&column=ki&startPg=0&Increment=50&submit=Search

> <PubChem CID>
134469972

> <PubChem SID>
441609681

$$$$

  Mrv2115 07222212352D          

 33 35  0  0  0  0            999 V2000
   -2.7637    1.4194    0.0000 C   0  0  0  0  0  0  0  0  0  0  0  0
   -1.9432    1.3332    0.0000 C   0  0  0  0  0  0  0  0  0  0  0  0
   -1.6077    0.5795    0.0000 C   0  0  0  0  0  0  0  0  0  0  0  0
   -0.8007    0.4080    0.0000 N   0  0  0  0  0  0  0  0  0  0  0  0
   -0.7145   -0.4125    0.0000 N   0  0  0  0  0  0  0  0  0  0  0  0
    0.0000   -0.8250    0.0000 C   0  0  0  0  0  0  0  0  0  0  0  0
    0.7145   -0.4125    0.0000 C   0  0  0  0  0  0  0  0  0  0  0  0
    1.4289   -0.8250    0.0000 C   0  0  0  0  0  0  0  0  0  0  0  0
    2.1434   -0.4125    0.0000 O   0  0  0  0  0  0  0  0  0  0  0  0
    2.1434    0.4125    0.0000 C   0  0  0  0  0  0  0  0  0  0  0  0
    1.4289    0.8250    0.0000 C   0  0  0  0  0  0  0  0  0  0  0  0
    2.8579    0.8250    0.0000 C   0  0  0  0  0  0  0  0  0  0  0  0
    2.8579    1.6500    0.0000 C   0  0  0  0  0  0  0  0  0  0  0  0
    3.5724    2.0625    0.0000 C   0  0  0  0  0  0  0  0  0  0  0  0
    4.2868    1.6500    0.0000 C   0  0  0  0  0  0  0  0  0  0  0  0
    4.2868    0.8250    0.0000 C   0  0  0  0  0  0  0  0  0  0  0  0
    3.5724    0.4125    0.0000 C   0  0  0  0  0  0  0  0  0  0  0  0
    1.4289   -1.6500    0.0000 C   0  0  0  0  0  0  0  0  0  0  0  0
    2.1434   -2.0625    0.0000 C   0  0  0  0  0  0  0  0  0  0  0  0
    2.1434   -2.8875    0.0000 O   0  0  0  0  0  0  0  0  0  0  0  0
    2.8579   -1.6500    0.0000 N   0  0  0  0  0  0  0  0  0  0  0  0
    3.5724   -2.0625    0.0000 C   0  0  0  0  0  0  0  0  0  0  0  0
    3.5724   -2.8875    0.0000 C   0  0  0  0  0  0  0  0  0  0  0  0
    4.2868   -3.3000    0.0000 C   0  0  0  0  0  0  0  0  0  0  0  0
    4.2868   -1.6500    0.0000 C   0  0  0  0  0  0  0  0  0  0  0  0
    5.0013   -2.0625    0.0000 C   0  0  0  0  0  0  0  0  0  0  0  0
    0.7145   -2.0625    0.0000 C   0  0  0  0  0  0  0  0  0  0  0  0
    0.0000   -1.6500    0.0000 C   0  0  0  0  0  0  0  0  0  0  0  0
   -0.7145   -2.0625    0.0000 F   0  0  0  0  0  0  0  0  0  0  0  0
   -1.4681   -0.7481    0.0000 C   0  0  0  0  0  0  0  0  0  0  0  0
   -1.6397   -1.5550    0.0000 O   0  0  0  0  0  0  0  0  0  0  0  0
   -2.0202   -0.1350    0.0000 N   0  0  0  0  0  0  0  0  0  0  0  0
   -2.8407   -0.2212    0.0000 C   0  0  0  0  0  0  0  0  0  0  0  0
  1  2  1  0  0  0  0
  2  3  1  0  0  0  0
  3  4  4  0  0  0  0
  4  5  4  0  0  0  0
  5  6  1  0  0  0  0
  6  7  4  0  0  0  0
  7  8  4  0  0  0  0
  8  9  1  0  0  0  0
  9 10  1  0  0  0  0
 10 11  1  0  0  0  0
 10 12  1  0  0  0  0
 12 13  4  0  0  0  0
 13 14  4  0  0  0  0
 14 15  4  0  0  0  0
 15 16  4  0  0  0  0
 16 17  4  0  0  0  0
 12 17  4  0  0  0  0
  8 18  4  0  0  0  0
 18 19  1  0  0  0  0
 19 20  2  0  0  0  0
 19 21  1  0  0  0  0
 21 22  1  0  0  0  0
 22 23  1  0  0  0  0
 23 24  1  0  0  0  0
 22 25  1  0  0  0  0
 25 26  1  0  0  0  0
 18 27  4  0  0  0  0
 27 28  4  0  0  0  0
  6 28  4  0  0  0  0
 28 29  1  0  0  0  0
  5 30  4  0  0  0  0
 30 31  2  0  0  0  0
 30 32  4  0  0  0  0
  3 32  4  0  0  0  0
 32 33  1  0  0  0  0
M  END
> <IC50(uM)>
0.08524999999999999

> <Outcome>
1.0

> <BindingDB ID>
972630; 1098784; 972629; 1098783

> <BindingDB MonomerID>
470511

> <BindingDB Ligand Name>
4-(3-ethyl-4-methyl-5-oxo-4,5-dihydro-1H-1,2,4-triazol-1-yl)-5-fluoro-N-(pentan-3-yl)-2-(1-phenylethoxy)benzamide, Mixture of Stereoisomers::US10815215, Example 169; 4-(3-ethyl-4-methyl-5-oxo-4,5-dihydro-1H-1,2,4-triazol-1-yl)-5-fluoro-N-(pentan-3-yl)-2-(1-phenylethoxy)benzamide, Mixture of Stereoisomers::US10815215, Example 169::US11130745, Example 169

> <Curation/DataSource>
US Patent

> <Article DOI>
?

> <PMID>
?

> <Patent Number>
US10815215; US11130745

> <Authors>
Gradl, SN; Nguyen, D; Eis, K; Gunther, J; Stellfeld, T; Janzer, A; Christian, S; Muller, T; Sheikh, SE; Zhou, HJ; Zhao, C; Sykes, DB; Ferrara, SJ; Liu, K; Krober, M; Merz, C; Niehues, M; Schafer, M; Zimmermann, K; Nising, CF; Gradl, SN; Nguyen, D; Eis, K; Gunther, J; Stellfeld, T; Janzer, A; Christian, S; Muller, T; Sheikh, SE; Sykes, DB; Ferrara, SJ; Krober, M; Merz, C; Niehues, M; Schafer, M; Zimmermann, K; Nising, CF

> <Link to Ligand in BindingDB>
http://www.bindingdb.org/bind/chemsearch/marvin/MolStructure.jsp?monomerid=470511

> <Link to Ligand-Target Pair in BindingDB>
http://www.bindingdb.org/jsp/dbsearch/PrimarySearch_ki.jsp?energyterm=kJ/mole&tag=r21&monomerid=470511&enzyme=Dihydroorotate+dehydrogenase&column=ki&startPg=0&Increment=50&submit=Search

> <PubChem CID>
134469935

> <PubChem SID>
441609688

$$$$

  Mrv2115 07222212352D          

 23 24  0  0  0  0            999 V2000
    1.9539   -4.4114    0.0000 C   0  0  0  0  0  0  0  0  0  0  0  0
    2.3664   -5.1259    0.0000 C   0  0  0  0  0  0  0  0  0  0  0  0
    3.1914   -5.1259    0.0000 C   0  0  0  0  0  0  0  0  0  0  0  0
    3.6039   -5.8404    0.0000 C   0  0  0  0  0  0  0  0  0  0  0  0
    4.4289   -5.8404    0.0000 C   0  0  0  0  0  0  0  0  0  0  0  0
    4.8414   -5.1259    0.0000 C   0  0  0  0  0  0  0  0  0  0  0  0
    4.4289   -4.4114    0.0000 C   0  0  0  0  0  0  0  0  0  0  0  0
    3.6084   -4.3252    0.0000 O   0  0  0  0  0  0  0  0  0  0  0  0
    3.4369   -3.5182    0.0000 N   0  0  0  0  0  0  0  0  0  0  0  0
    4.1514   -3.1057    0.0000 C   0  0  0  0  0  0  0  0  0  0  0  0
    4.7645   -3.6578    0.0000 C   0  0  0  0  0  0  0  0  0  0  0  0
    5.5715   -3.4862    0.0000 C   0  0  0  0  0  0  0  0  0  0  0  0
    6.1235   -4.0993    0.0000 S   0  0  0  0  0  0  0  0  0  0  0  0
    5.8264   -2.7016    0.0000 N   0  0  0  0  0  0  0  0  0  0  0  0
    6.6334   -2.5301    0.0000 C   0  0  0  0  0  0  0  0  0  0  0  0
    6.8883   -1.7455    0.0000 C   0  0  0  0  0  0  0  0  0  0  0  0
    7.6953   -1.5739    0.0000 C   0  0  0  0  0  0  0  0  0  0  0  0
    8.2473   -2.1870    0.0000 C   0  0  0  0  0  0  0  0  0  0  0  0
    9.0543   -2.0155    0.0000 N   0  0  0  0  0  0  0  0  0  0  0  0
    9.3092   -1.2309    0.0000 C   0  0  0  0  0  0  0  0  0  0  0  0
    9.6063   -2.6286    0.0000 C   0  0  0  0  0  0  0  0  0  0  0  0
    7.9924   -2.9716    0.0000 C   0  0  0  0  0  0  0  0  0  0  0  0
    7.1854   -3.1432    0.0000 C   0  0  0  0  0  0  0  0  0  0  0  0
  1  2  1  0  0  0  0
  2  3  1  0  0  0  0
  3  4  1  0  0  0  0
  4  5  1  0  0  0  0
  5  6  1  0  0  0  0
  6  7  1  0  0  0  0
  7  8  4  0  0  0  0
  8  9  4  0  0  0  0
  9 10  4  0  0  0  0
 10 11  4  0  0  0  0
  7 11  4  0  0  0  0
 11 12  1  0  0  0  0
 12 13  2  0  0  0  0
 12 14  1  0  0  0  0
 14 15  1  0  0  0  0
 15 16  4  0  0  0  0
 16 17  4  0  0  0  0
 17 18  4  0  0  0  0
 18 19  1  0  0  0  0
 19 20  1  0  0  0  0
 19 21  1  0  0  0  0
 18 22  4  0  0  0  0
 22 23  4  0  0  0  0
 15 23  4  0  0  0  0
M  END
> <IC50(uM)>
50.0

> <Outcome>
0.0

> <BindingDB ID>
50123319

> <BindingDB MonomerID>
50071410

> <BindingDB Ligand Name>
5-Hexyl-isoxazole-4-carbothioic acid (4-dimethylamino-phenyl)-amide::CHEMBL71795

> <Curation/DataSource>
ChEMBL

> <Article DOI>
10.1016/s0960-894x(98)00365-5

> <PMID>
9873513

> <Patent Number>
?

> <Authors>
Albert, R; Knecht, H; Andersen, E; Hungerford, V; Schreier, MH; Papageorgiou, C

> <Link to Ligand in BindingDB>
http://www.bindingdb.org/bind/chemsearch/marvin/MolStructure.jsp?monomerid=50071410

> <Link to Ligand-Target Pair in BindingDB>
http://www.bindingdb.org/jsp/dbsearch/PrimarySearch_ki.jsp?energyterm=kJ/mole&tag=r21&monomerid=50071410&enzyme=Dihydroorotate+dehydrogenase&column=ki&startPg=0&Increment=50&submit=Search

> <PubChem CID>
44310719

> <PubChem SID>
103965164

$$$$

  Mrv2115 07222212352D          

 31 34  0  0  0  0            999 V2000
   -0.7145    1.2375    0.0000 C   0  0  0  0  0  0  0  0  0  0  0  0
    0.0000    0.8250    0.0000 C   0  0  0  0  0  0  0  0  0  0  0  0
    0.0000   -0.0000    0.0000 O   0  0  0  0  0  0  0  0  0  0  0  0
    0.7145   -0.4125    0.0000 C   0  0  0  0  0  0  0  0  0  0  0  0
    1.4289   -0.0000    0.0000 O   0  0  0  0  0  0  0  0  0  0  0  0
    0.7145   -1.2375    0.0000 C   0  0  0  0  0  0  0  0  0  0  0  0
    1.3819   -1.7224    0.0000 S   0  0  0  0  0  0  0  0  0  0  0  0
    1.1270   -2.5070    0.0000 C   0  0  0  0  0  0  0  0  0  0  0  0
    1.6119   -3.1745    0.0000 N   0  0  0  0  0  0  0  0  0  0  0  0
    1.2763   -3.9282    0.0000 C   0  0  0  0  0  0  0  0  0  0  0  0
    1.7613   -4.5956    0.0000 C   0  0  0  0  0  0  0  0  0  0  0  0
    1.4257   -5.3493    0.0000 C   0  0  0  0  0  0  0  0  0  0  0  0
    0.6052   -5.4355    0.0000 C   0  0  0  0  0  0  0  0  0  0  0  0
    0.2697   -6.1892    0.0000 C   0  0  0  0  0  0  0  0  0  0  0  0
    0.7546   -6.8566    0.0000 C   0  0  0  0  0  0  0  0  0  0  0  0
    0.4190   -7.6103    0.0000 C   0  0  0  0  0  0  0  0  0  0  0  0
   -0.4015   -7.6965    0.0000 C   0  0  0  0  0  0  0  0  0  0  0  0
   -0.8864   -7.0291    0.0000 C   0  0  0  0  0  0  0  0  0  0  0  0
   -1.7069   -7.1153    0.0000 O   0  0  0  0  0  0  0  0  0  0  0  0
   -2.0424   -7.8690    0.0000 C   0  0  0  0  0  0  0  0  0  0  0  0
   -0.5508   -6.2754    0.0000 C   0  0  0  0  0  0  0  0  0  0  0  0
    0.1203   -4.7681    0.0000 C   0  0  0  0  0  0  0  0  0  0  0  0
    0.4559   -4.0144    0.0000 C   0  0  0  0  0  0  0  0  0  0  0  0
    0.3020   -2.5070    0.0000 N   0  0  0  0  0  0  0  0  0  0  0  0
    0.0470   -1.7224    0.0000 C   0  0  0  0  0  0  0  0  0  0  0  0
   -0.7376   -1.4675    0.0000 C   0  0  0  0  0  0  0  0  0  0  0  0
   -1.3507   -2.0195    0.0000 C   0  0  0  0  0  0  0  0  0  0  0  0
   -2.1353   -1.7646    0.0000 C   0  0  0  0  0  0  0  0  0  0  0  0
   -2.3068   -0.9576    0.0000 C   0  0  0  0  0  0  0  0  0  0  0  0
   -1.6937   -0.4056    0.0000 C   0  0  0  0  0  0  0  0  0  0  0  0
   -0.9091   -0.6605    0.0000 C   0  0  0  0  0  0  0  0  0  0  0  0
  1  2  1  0  0  0  0
  2  3  1  0  0  0  0
  3  4  1  0  0  0  0
  4  5  2  0  0  0  0
  4  6  1  0  0  0  0
  6  7  4  0  0  0  0
  7  8  4  0  0  0  0
  8  9  1  0  0  0  0
  9 10  1  0  0  0  0
 10 11  4  0  0  0  0
 11 12  4  0  0  0  0
 12 13  4  0  0  0  0
 13 14  1  0  0  0  0
 14 15  4  0  0  0  0
 15 16  4  0  0  0  0
 16 17  4  0  0  0  0
 17 18  4  0  0  0  0
 18 19  1  0  0  0  0
 19 20  1  0  0  0  0
 18 21  4  0  0  0  0
 14 21  4  0  0  0  0
 13 22  4  0  0  0  0
 22 23  4  0  0  0  0
 10 23  4  0  0  0  0
  8 24  4  0  0  0  0
 24 25  4  0  0  0  0
  6 25  4  0  0  0  0
 25 26  1  0  0  0  0
 26 27  4  0  0  0  0
 27 28  4  0  0  0  0
 28 29  4  0  0  0  0
 29 30  4  0  0  0  0
 30 31  4  0  0  0  0
 26 31  4  0  0  0  0
M  END
> <IC50(uM)>
10.0

> <Outcome>
0.0

> <BindingDB ID>
50312493

> <BindingDB MonomerID>
50071800

> <BindingDB Ligand Name>
CHEMBL3410613

> <Curation/DataSource>
ChEMBL

> <Article DOI>
10.1021/jm501127s

> <PMID>
25580811

> <Patent Number>
?

> <Authors>
Zhu, J; Han, L; Diao, Y; Ren, X; Xu, M; Xu, L; Li, S; Li, Q; Dong, D; Huang, J; Liu, X; Zhao, Z; Wang, R; Zhu, L; Xu, Y; Qian, X; Li, H

> <Link to Ligand in BindingDB>
http://www.bindingdb.org/bind/chemsearch/marvin/MolStructure.jsp?monomerid=50071800

> <Link to Ligand-Target Pair in BindingDB>
http://www.bindingdb.org/jsp/dbsearch/PrimarySearch_ki.jsp?energyterm=kJ/mole&tag=r21&monomerid=50071800&enzyme=Dihydroorotate+dehydrogenase&column=ki&startPg=0&Increment=50&submit=Search

> <PubChem CID>
118732521

> <PubChem SID>
103965510

$$$$

  Mrv2115 07222212352D          

 33 37  0  0  0  0            999 V2000
    4.0668    2.3479    0.0000 C   0  0  0  0  0  0  0  0  0  0  0  0
    3.3523    1.9354    0.0000 C   0  0  0  0  0  0  0  0  0  0  0  0
    3.3523    1.1104    0.0000 C   0  0  0  0  0  0  0  0  0  0  0  0
    2.6378    0.6979    0.0000 C   0  0  0  0  0  0  0  0  0  0  0  0
    2.6378   -0.1271    0.0000 C   0  0  0  0  0  0  0  0  0  0  0  0
    1.9233   -0.5396    0.0000 O   0  0  0  0  0  0  0  0  0  0  0  0
    3.3523   -0.5396    0.0000 O   0  0  0  0  0  0  0  0  0  0  0  0
    1.9233    1.1104    0.0000 C   0  0  0  0  0  0  0  0  0  0  0  0
    1.1387    0.8555    0.0000 N   0  0  0  0  0  0  0  0  0  0  0  0
    0.6538    1.5229    0.0000 C   0  0  0  0  0  0  0  0  0  0  0  0
   -0.1712    1.5229    0.0000 C   0  0  0  0  0  0  0  0  0  0  0  0
   -0.5837    0.8085    0.0000 C   0  0  0  0  0  0  0  0  0  0  0  0
   -1.4087    0.8085    0.0000 C   0  0  0  0  0  0  0  0  0  0  0  0
   -1.8212    1.5229    0.0000 C   0  0  0  0  0  0  0  0  0  0  0  0
   -2.6462    1.5229    0.0000 C   0  0  0  0  0  0  0  0  0  0  0  0
   -3.0587    0.8085    0.0000 C   0  0  0  0  0  0  0  0  0  0  0  0
   -3.8837    0.8085    0.0000 C   0  0  0  0  0  0  0  0  0  0  0  0
   -4.2962    1.5229    0.0000 C   0  0  0  0  0  0  0  0  0  0  0  0
   -3.8837    2.2374    0.0000 C   0  0  0  0  0  0  0  0  0  0  0  0
   -3.0587    2.2374    0.0000 C   0  0  0  0  0  0  0  0  0  0  0  0
   -2.6462    2.9519    0.0000 O   0  0  0  0  0  0  0  0  0  0  0  0
   -3.0587    3.6664    0.0000 C   0  0  0  0  0  0  0  0  0  0  0  0
   -2.6462    4.3808    0.0000 C   0  0  0  0  0  0  0  0  0  0  0  0
   -3.0587    5.0953    0.0000 C   0  0  0  0  0  0  0  0  0  0  0  0
   -2.6462    5.8098    0.0000 C   0  0  0  0  0  0  0  0  0  0  0  0
   -1.8212    5.8098    0.0000 C   0  0  0  0  0  0  0  0  0  0  0  0
   -1.4087    5.0953    0.0000 C   0  0  0  0  0  0  0  0  0  0  0  0
   -1.8212    4.3808    0.0000 C   0  0  0  0  0  0  0  0  0  0  0  0
   -1.4087    2.2374    0.0000 C   0  0  0  0  0  0  0  0  0  0  0  0
   -0.5837    2.2374    0.0000 C   0  0  0  0  0  0  0  0  0  0  0  0
    1.1387    2.1904    0.0000 N   0  0  0  0  0  0  0  0  0  0  0  0
    1.9233    1.9354    0.0000 C   0  0  0  0  0  0  0  0  0  0  0  0
    2.6378    2.3479    0.0000 C   0  0  0  0  0  0  0  0  0  0  0  0
  1  2  1  0  0  0  0
  2  3  4  0  0  0  0
  3  4  4  0  0  0  0
  4  5  1  0  0  0  0
  5  6  2  0  0  0  0
  5  7  1  0  0  0  0
  4  8  4  0  0  0  0
  8  9  4  0  0  0  0
  9 10  4  0  0  0  0
 10 11  1  0  0  0  0
 11 12  4  0  0  0  0
 12 13  4  0  0  0  0
 13 14  4  0  0  0  0
 14 15  1  0  0  0  0
 15 16  4  0  0  0  0
 16 17  4  0  0  0  0
 17 18  4  0  0  0  0
 18 19  4  0  0  0  0
 19 20  4  0  0  0  0
 15 20  4  0  0  0  0
 20 21  1  0  0  0  0
 21 22  1  0  0  0  0
 22 23  1  0  0  0  0
 23 24  4  0  0  0  0
 24 25  4  0  0  0  0
 25 26  4  0  0  0  0
 26 27  4  0  0  0  0
 27 28  4  0  0  0  0
 23 28  4  0  0  0  0
 14 29  4  0  0  0  0
 29 30  4  0  0  0  0
 11 30  4  0  0  0  0
 10 31  4  0  0  0  0
 31 32  4  0  0  0  0
  8 32  4  0  0  0  0
 32 33  4  0  0  0  0
  2 33  4  0  0  0  0
M  STY  1   1 DAT
M  SAL   1  1   9
M  SDT   1 MRV_IMPLICIT_H                                        
M  SDD   1     0.5304   -0.4125    DR    ALL  0       0  
M  SED   1 IMPL_H1
M  END
> <IC50(uM)>
1.5

> <Outcome>
0.0

> <BindingDB ID>
297808

> <BindingDB MonomerID>
155464

> <BindingDB Ligand Name>
US9006454, I106

> <Curation/DataSource>
US Patent

> <Article DOI>
?

> <PMID>
?

> <Patent Number>
US9006454

> <Authors>
Thunuguntla, SS; Subramanya, H; Kunnam, SR; Sanivaru Vijay, SR; Bingi, C; Kusanur, R; Schwarz, M; Arlt, M

> <Link to Ligand in BindingDB>
http://www.bindingdb.org/bind/chemsearch/marvin/MolStructure.jsp?monomerid=155464

> <Link to Ligand-Target Pair in BindingDB>
http://www.bindingdb.org/jsp/dbsearch/PrimarySearch_ki.jsp?energyterm=kJ/mole&tag=r21&monomerid=155464&enzyme=Dihydroorotate+dehydrogenase&column=ki&startPg=0&Increment=50&submit=Search

> <PubChem CID>
58073839

> <PubChem SID>
253658401

$$$$

  Mrv2115 07222212352D          

 16 17  0  0  0  0            999 V2000
    2.0367   -0.4741    0.0000 C   0  0  0  0  0  0  0  0  0  0  0  0
    2.0367   -1.2991    0.0000 C   0  0  0  0  0  0  0  0  0  0  0  0
    2.7041   -1.7840    0.0000 N   0  0  0  0  0  0  0  0  0  0  0  0
    2.4492   -2.5687    0.0000 N   0  0  0  0  0  0  0  0  0  0  0  0
    1.6242   -2.5687    0.0000 C   0  0  0  0  0  0  0  0  0  0  0  0
    1.1393   -3.2361    0.0000 N   0  0  0  0  0  0  0  0  0  0  0  0
    0.3188   -3.1499    0.0000 C   0  0  0  0  0  0  0  0  0  0  0  0
   -0.1661   -3.8173    0.0000 C   0  0  0  0  0  0  0  0  0  0  0  0
   -0.9866   -3.7311    0.0000 C   0  0  0  0  0  0  0  0  0  0  0  0
   -1.3222   -2.9774    0.0000 C   0  0  0  0  0  0  0  0  0  0  0  0
   -2.1426   -2.8911    0.0000 F   0  0  0  0  0  0  0  0  0  0  0  0
   -0.8372   -2.3099    0.0000 C   0  0  0  0  0  0  0  0  0  0  0  0
   -0.0168   -2.3962    0.0000 C   0  0  0  0  0  0  0  0  0  0  0  0
    1.3693   -1.7840    0.0000 C   0  0  0  0  0  0  0  0  0  0  0  0
    0.5846   -1.5291    0.0000 C   0  0  0  0  0  0  0  0  0  0  0  0
   -0.2000   -1.2742    0.0000 N   0  0  0  0  0  0  0  0  0  0  0  0
  1  2  1  0  0  0  0
  2  3  4  0  0  0  0
  3  4  4  0  0  0  0
  4  5  4  0  0  0  0
  5  6  1  0  0  0  0
  6  7  1  0  0  0  0
  7  8  4  0  0  0  0
  8  9  4  0  0  0  0
  9 10  4  0  0  0  0
 10 11  1  0  0  0  0
 10 12  4  0  0  0  0
 12 13  4  0  0  0  0
  7 13  4  0  0  0  0
  5 14  4  0  0  0  0
  2 14  4  0  0  0  0
 14 15  1  0  0  0  0
 15 16  3  0  0  0  0
M  STY  1   1 DAT
M  SAL   1  1   4
M  SDT   1 MRV_IMPLICIT_H                                        
M  SDD   1     0.5304   -0.4125    DR    ALL  0       0  
M  SED   1 IMPL_H1
M  END
> <IC50(uM)>
19.4

> <Outcome>
0.0

> <BindingDB ID>
50786779

> <BindingDB MonomerID>
50066603

> <BindingDB Ligand Name>
3-(4-Fluoro-phenylamino)-5-methyl-1H-pyrazole-4-carbonitrile::CHEMBL333404

> <Curation/DataSource>
ChEMBL

> <Article DOI>
10.1021/jm981028c

> <PMID>
9719606

> <Patent Number>
?

> <Authors>
Papageorgiou, C; Albert, R; Floersheim, P; Lemaire, M; Bitch, F; Weber, HP; Andersen, E; Hungerford, V; Schreier, MH

> <Link to Ligand in BindingDB>
http://www.bindingdb.org/bind/chemsearch/marvin/MolStructure.jsp?monomerid=50066603

> <Link to Ligand-Target Pair in BindingDB>
http://www.bindingdb.org/jsp/dbsearch/PrimarySearch_ki.jsp?energyterm=kJ/mole&tag=r21&monomerid=50066603&enzyme=Dihydroorotate+dehydrogenase&column=ki&startPg=0&Increment=50&submit=Search

> <PubChem CID>
10512886

> <PubChem SID>
103961223

$$$$

  Mrv2115 07222212352D          

 34 38  0  0  0  0            999 V2000
   -0.1712   -0.6979    0.0000 C   0  0  0  0  0  0  0  0  0  0  0  0
    0.6538   -0.6979    0.0000 C   0  0  0  0  0  0  0  0  0  0  0  0
    1.1387   -0.0305    0.0000 N   0  0  0  0  0  0  0  0  0  0  0  0
    1.9233   -0.2854    0.0000 C   0  0  0  0  0  0  0  0  0  0  0  0
    2.6378    0.1271    0.0000 C   0  0  0  0  0  0  0  0  0  0  0  0
    2.6378    0.9521    0.0000 C   0  0  0  0  0  0  0  0  0  0  0  0
    3.3523    1.3646    0.0000 O   0  0  0  0  0  0  0  0  0  0  0  0
    1.9233    1.3646    0.0000 O   0  0  0  0  0  0  0  0  0  0  0  0
    3.3523   -0.2854    0.0000 C   0  0  0  0  0  0  0  0  0  0  0  0
    3.3523   -1.1104    0.0000 C   0  0  0  0  0  0  0  0  0  0  0  0
    4.0668   -1.5229    0.0000 C   0  0  0  0  0  0  0  0  0  0  0  0
    4.7812   -1.1104    0.0000 C   0  0  0  0  0  0  0  0  0  0  0  0
    5.4957   -1.5229    0.0000 C   0  0  0  0  0  0  0  0  0  0  0  0
    5.4957   -2.3479    0.0000 C   0  0  0  0  0  0  0  0  0  0  0  0
    6.2102   -2.7604    0.0000 C   0  0  0  0  0  0  0  0  0  0  0  0
    6.9246   -2.3479    0.0000 C   0  0  0  0  0  0  0  0  0  0  0  0
    7.6391   -2.7604    0.0000 C   0  0  0  0  0  0  0  0  0  0  0  0
    7.6391   -3.5854    0.0000 C   0  0  0  0  0  0  0  0  0  0  0  0
    6.9246   -3.9979    0.0000 C   0  0  0  0  0  0  0  0  0  0  0  0
    6.9246   -4.8229    0.0000 C   0  0  0  0  0  0  0  0  0  0  0  0
    6.2102   -5.2354    0.0000 N   0  0  0  0  0  0  0  0  0  0  0  0
    6.2102   -6.0604    0.0000 C   0  0  0  0  0  0  0  0  0  0  0  0
    5.4957   -6.4729    0.0000 C   0  0  0  0  0  0  0  0  0  0  0  0
    4.7812   -6.0604    0.0000 S   0  0  0  0  0  0  0  0  0  0  0  0
    4.4991   -6.8357    0.0000 O   0  0  0  0  0  0  0  0  0  0  0  0
    3.9688   -5.9172    0.0000 O   0  0  0  0  0  0  0  0  0  0  0  0
    4.7812   -5.2354    0.0000 C   0  0  0  0  0  0  0  0  0  0  0  0
    5.4957   -4.8229    0.0000 C   0  0  0  0  0  0  0  0  0  0  0  0
    6.2102   -3.5854    0.0000 C   0  0  0  0  0  0  0  0  0  0  0  0
    4.7812   -2.7604    0.0000 C   0  0  0  0  0  0  0  0  0  0  0  0
    4.0668   -2.3479    0.0000 C   0  0  0  0  0  0  0  0  0  0  0  0
    2.6378   -1.5229    0.0000 C   0  0  0  0  0  0  0  0  0  0  0  0
    1.9233   -1.1104    0.0000 C   0  0  0  0  0  0  0  0  0  0  0  0
    1.1387   -1.3654    0.0000 N   0  0  0  0  0  0  0  0  0  0  0  0
  1  2  1  0  0  0  0
  2  3  4  0  0  0  0
  3  4  4  0  0  0  0
  4  5  4  0  0  0  0
  5  6  1  0  0  0  0
  6  7  2  0  0  0  0
  6  8  1  0  0  0  0
  5  9  4  0  0  0  0
  9 10  4  0  0  0  0
 10 11  1  0  0  0  0
 11 12  4  0  0  0  0
 12 13  4  0  0  0  0
 13 14  4  0  0  0  0
 14 15  1  0  0  0  0
 15 16  4  0  0  0  0
 16 17  4  0  0  0  0
 17 18  4  0  0  0  0
 18 19  4  0  0  0  0
 19 20  1  0  0  0  0
 20 21  1  0  0  0  0
 21 22  1  0  0  0  0
 22 23  1  0  0  0  0
 23 24  1  0  0  0  0
 24 25  2  0  0  0  0
 24 26  2  0  0  0  0
 24 27  1  0  0  0  0
 27 28  1  0  0  0  0
 21 28  1  0  0  0  0
 19 29  4  0  0  0  0
 15 29  4  0  0  0  0
 14 30  4  0  0  0  0
 30 31  4  0  0  0  0
 11 31  4  0  0  0  0
 10 32  4  0  0  0  0
 32 33  4  0  0  0  0
  4 33  4  0  0  0  0
 33 34  4  0  0  0  0
  2 34  4  0  0  0  0
M  STY  1   1 DAT
M  SAL   1  1  34
M  SDT   1 MRV_IMPLICIT_H                                        
M  SDD   1     0.5304   -0.4125    DR    ALL  0       0  
M  SED   1 IMPL_H1
M  END
> <IC50(uM)>
0.055

> <Outcome>
1.0

> <BindingDB ID>
1045594

> <BindingDB MonomerID>
501652

> <BindingDB Ligand Name>
US11028054, Example 36

> <Curation/DataSource>
US Patent

> <Article DOI>
?

> <PMID>
?

> <Patent Number>
US11028054

> <Authors>
Thunuguntla, SS; Hosahalli, S; Panigrahi, SK; Schwarz, M; Arit, M

> <Link to Ligand in BindingDB>
http://www.bindingdb.org/bind/chemsearch/marvin/MolStructure.jsp?monomerid=501652

> <Link to Ligand-Target Pair in BindingDB>
http://www.bindingdb.org/jsp/dbsearch/PrimarySearch_ki.jsp?energyterm=kJ/mole&tag=r21&monomerid=501652&enzyme=Dihydroorotate+dehydrogenase&column=ki&startPg=0&Increment=50&submit=Search

> <PubChem CID>
?

> <PubChem SID>
?

$$$$

  Mrv2115 07222212352D          

 27 30  0  0  0  0            999 V2000
    4.5553    5.9907    0.0000 C   0  0  0  0  0  0  0  0  0  0  0  0
    4.8908    5.2370    0.0000 S   0  0  0  0  0  0  0  0  0  0  0  0
    4.4059    4.5695    0.0000 C   0  0  0  0  0  0  0  0  0  0  0  0
    4.6608    3.7849    0.0000 N   0  0  0  0  0  0  0  0  0  0  0  0
    3.9934    3.3000    0.0000 C   0  0  0  0  0  0  0  0  0  0  0  0
    3.9934    2.4750    0.0000 C   0  0  0  0  0  0  0  0  0  0  0  0
    4.7079    2.0625    0.0000 O   0  0  0  0  0  0  0  0  0  0  0  0
    3.2789    2.0625    0.0000 N   0  0  0  0  0  0  0  0  0  0  0  0
    3.2789    1.2375    0.0000 C   0  0  0  0  0  0  0  0  0  0  0  0
    3.9934    0.8250    0.0000 C   0  0  0  0  0  0  0  0  0  0  0  0
    3.9934    0.0000    0.0000 C   0  0  0  0  0  0  0  0  0  0  0  0
    3.2789   -0.4125    0.0000 C   0  0  0  0  0  0  0  0  0  0  0  0
    2.5645    0.0000    0.0000 C   0  0  0  0  0  0  0  0  0  0  0  0
    2.5645    0.8250    0.0000 C   0  0  0  0  0  0  0  0  0  0  0  0
    1.7798    1.0799    0.0000 C   0  0  0  0  0  0  0  0  0  0  0  0
    1.2949    0.4125    0.0000 N   0  0  0  0  0  0  0  0  0  0  0  0
    1.7798   -0.2549    0.0000 N   0  0  0  0  0  0  0  0  0  0  0  0
    1.5249   -1.0396    0.0000 C   0  0  0  0  0  0  0  0  0  0  0  0
    2.0769   -1.6527    0.0000 C   0  0  0  0  0  0  0  0  0  0  0  0
    1.8220   -2.4373    0.0000 C   0  0  0  0  0  0  0  0  0  0  0  0
    1.0150   -2.6088    0.0000 C   0  0  0  0  0  0  0  0  0  0  0  0
    0.7601   -3.3934    0.0000 F   0  0  0  0  0  0  0  0  0  0  0  0
    0.4630   -1.9957    0.0000 C   0  0  0  0  0  0  0  0  0  0  0  0
    0.7179   -1.2111    0.0000 C   0  0  0  0  0  0  0  0  0  0  0  0
    0.1659   -0.5980    0.0000 F   0  0  0  0  0  0  0  0  0  0  0  0
    3.3260    3.7849    0.0000 C   0  0  0  0  0  0  0  0  0  0  0  0
    3.5809    4.5695    0.0000 S   0  0  0  0  0  0  0  0  0  0  0  0
  1  2  1  0  0  0  0
  2  3  1  0  0  0  0
  3  4  4  0  0  0  0
  4  5  4  0  0  0  0
  5  6  1  0  0  0  0
  6  7  2  0  0  0  0
  6  8  1  0  0  0  0
  8  9  1  0  0  0  0
  9 10  1  0  0  0  0
 10 11  1  0  0  0  0
 11 12  1  0  0  0  0
 12 13  1  0  0  0  0
 13 14  4  0  0  0  0
  9 14  1  0  0  0  0
 14 15  4  0  0  0  0
 15 16  4  0  0  0  0
 16 17  4  0  0  0  0
 13 17  4  0  0  0  0
 17 18  1  0  0  0  0
 18 19  4  0  0  0  0
 19 20  4  0  0  0  0
 20 21  4  0  0  0  0
 21 22  1  0  0  0  0
 21 23  4  0  0  0  0
 23 24  4  0  0  0  0
 18 24  4  0  0  0  0
 24 25  1  0  0  0  0
  5 26  4  0  0  0  0
 26 27  4  0  0  0  0
  3 27  4  0  0  0  0
M  END
> <IC50(uM)>
8.2

> <Outcome>
0.0

> <BindingDB ID>
993080

> <BindingDB MonomerID>
477582

> <BindingDB Ligand Name>
N-[1-(2,4-difluorophenyl)-4,5,6,7-tetrahydro-1H-indazol-4-yl]-2-(methylthio)-1,3-thiazole-4-carboxamide::US10889564, Example 11

> <Curation/DataSource>
US Patent

> <Article DOI>
?

> <PMID>
?

> <Patent Number>
US10889564

> <Authors>
Lain, S; Drummond, C; Leeuwen, IV; Haraldsson, M; Johansson, L; Sandberg, L; Yngve, U

> <Link to Ligand in BindingDB>
http://www.bindingdb.org/bind/chemsearch/marvin/MolStructure.jsp?monomerid=477582

> <Link to Ligand-Target Pair in BindingDB>
http://www.bindingdb.org/jsp/dbsearch/PrimarySearch_ki.jsp?energyterm=kJ/mole&tag=r21&monomerid=477582&enzyme=Dihydroorotate+dehydrogenase&column=ki&startPg=0&Increment=50&submit=Search

> <PubChem CID>
45202984

> <PubChem SID>
442137199

$$$$

  Mrv2115 07222212352D          

 28 31  0  0  0  0            999 V2000
    7.6391    6.0604    0.0000 C   0  0  0  0  0  0  0  0  0  0  0  0
    6.9246    5.6479    0.0000 O   0  0  0  0  0  0  0  0  0  0  0  0
    6.9246    4.8229    0.0000 C   0  0  0  0  0  0  0  0  0  0  0  0
    7.6391    4.4104    0.0000 C   0  0  0  0  0  0  0  0  0  0  0  0
    7.6391    3.5854    0.0000 C   0  0  0  0  0  0  0  0  0  0  0  0
    6.9246    3.1729    0.0000 C   0  0  0  0  0  0  0  0  0  0  0  0
    6.2102    3.5854    0.0000 C   0  0  0  0  0  0  0  0  0  0  0  0
    5.4957    3.1729    0.0000 C   0  0  0  0  0  0  0  0  0  0  0  0
    5.4957    2.3479    0.0000 C   0  0  0  0  0  0  0  0  0  0  0  0
    4.7812    1.9354    0.0000 C   0  0  0  0  0  0  0  0  0  0  0  0
    4.0668    2.3479    0.0000 C   0  0  0  0  0  0  0  0  0  0  0  0
    3.3523    1.9354    0.0000 C   0  0  0  0  0  0  0  0  0  0  0  0
    3.3523    1.1104    0.0000 C   0  0  0  0  0  0  0  0  0  0  0  0
    2.6378    0.6979    0.0000 C   0  0  0  0  0  0  0  0  0  0  0  0
    2.6378   -0.1271    0.0000 C   0  0  0  0  0  0  0  0  0  0  0  0
    1.9233   -0.5396    0.0000 O   0  0  0  0  0  0  0  0  0  0  0  0
    3.3523   -0.5396    0.0000 O   0  0  0  0  0  0  0  0  0  0  0  0
    1.9233    1.1104    0.0000 C   0  0  0  0  0  0  0  0  0  0  0  0
    1.1387    0.8555    0.0000 N   0  0  0  0  0  0  0  0  0  0  0  0
    0.6538    1.5229    0.0000 C   0  0  0  0  0  0  0  0  0  0  0  0
   -0.1712    1.5229    0.0000 C   0  0  0  0  0  0  0  0  0  0  0  0
    1.1387    2.1904    0.0000 N   0  0  0  0  0  0  0  0  0  0  0  0
    1.9233    1.9354    0.0000 C   0  0  0  0  0  0  0  0  0  0  0  0
    2.6378    2.3479    0.0000 C   0  0  0  0  0  0  0  0  0  0  0  0
    4.0668    3.1729    0.0000 C   0  0  0  0  0  0  0  0  0  0  0  0
    4.7812    3.5854    0.0000 C   0  0  0  0  0  0  0  0  0  0  0  0
    6.2102    4.4104    0.0000 C   0  0  0  0  0  0  0  0  0  0  0  0
    5.4957    4.8229    0.0000 F   0  0  0  0  0  0  0  0  0  0  0  0
  1  2  1  0  0  0  0
  2  3  1  0  0  0  0
  3  4  4  0  0  0  0
  4  5  4  0  0  0  0
  5  6  4  0  0  0  0
  6  7  4  0  0  0  0
  7  8  1  0  0  0  0
  8  9  4  0  0  0  0
  9 10  4  0  0  0  0
 10 11  4  0  0  0  0
 11 12  1  0  0  0  0
 12 13  4  0  0  0  0
 13 14  4  0  0  0  0
 14 15  1  0  0  0  0
 15 16  2  0  0  0  0
 15 17  1  0  0  0  0
 14 18  4  0  0  0  0
 18 19  4  0  0  0  0
 19 20  4  0  0  0  0
 20 21  1  0  0  0  0
 20 22  4  0  0  0  0
 22 23  4  0  0  0  0
 18 23  4  0  0  0  0
 23 24  4  0  0  0  0
 12 24  4  0  0  0  0
 11 25  4  0  0  0  0
 25 26  4  0  0  0  0
  8 26  4  0  0  0  0
  7 27  4  0  0  0  0
  3 27  4  0  0  0  0
 27 28  1  0  0  0  0
M  STY  1   1 DAT
M  SAL   1  1  22
M  SDT   1 MRV_IMPLICIT_H                                        
M  SDD   1     0.5304   -0.4125    DR    ALL  0       0  
M  SED   1 IMPL_H1
M  END
> <IC50(uM)>
0.055

> <Outcome>
1.0

> <BindingDB ID>
1045591

> <BindingDB MonomerID>
501649

> <BindingDB Ligand Name>
US11028054, Example 21

> <Curation/DataSource>
US Patent

> <Article DOI>
?

> <PMID>
?

> <Patent Number>
US11028054

> <Authors>
Thunuguntla, SS; Hosahalli, S; Panigrahi, SK; Schwarz, M; Arit, M

> <Link to Ligand in BindingDB>
http://www.bindingdb.org/bind/chemsearch/marvin/MolStructure.jsp?monomerid=501649

> <Link to Ligand-Target Pair in BindingDB>
http://www.bindingdb.org/jsp/dbsearch/PrimarySearch_ki.jsp?energyterm=kJ/mole&tag=r21&monomerid=501649&enzyme=Dihydroorotate+dehydrogenase&column=ki&startPg=0&Increment=50&submit=Search

> <PubChem CID>
?

> <PubChem SID>
?

$$$$

  Mrv2115 07222212352D          

 34 37  0  0  0  0            999 V2000
   -0.6284    2.1599    0.0000 C   0  0  0  0  0  0  0  0  0  0  0  0
   -1.4534    2.1599    0.0000 C   0  0  0  0  0  0  0  0  0  0  0  0
   -1.8659    1.4455    0.0000 C   0  0  0  0  0  0  0  0  0  0  0  0
   -2.6909    1.4455    0.0000 C   0  0  0  0  0  0  0  0  0  0  0  0
   -3.1034    2.1599    0.0000 C   0  0  0  0  0  0  0  0  0  0  0  0
   -3.1034    0.7310    0.0000 O   0  0  0  0  0  0  0  0  0  0  0  0
   -2.6909    0.0165    0.0000 C   0  0  0  0  0  0  0  0  0  0  0  0
   -1.8659    0.0165    0.0000 C   0  0  0  0  0  0  0  0  0  0  0  0
   -1.4534   -0.6979    0.0000 C   0  0  0  0  0  0  0  0  0  0  0  0
   -0.6284   -0.6979    0.0000 N   0  0  0  0  0  0  0  0  0  0  0  0
   -0.1435   -1.3654    0.0000 N   0  0  0  0  0  0  0  0  0  0  0  0
    0.6411   -1.1104    0.0000 C   0  0  0  0  0  0  0  0  0  0  0  0
    0.6411   -0.2854    0.0000 N   0  0  0  0  0  0  0  0  0  0  0  0
   -0.1435   -0.0305    0.0000 C   0  0  0  0  0  0  0  0  0  0  0  0
   -0.3984    0.7541    0.0000 O   0  0  0  0  0  0  0  0  0  0  0  0
    1.3556    0.1271    0.0000 C   0  0  0  0  0  0  0  0  0  0  0  0
    2.0701   -0.2854    0.0000 C   0  0  0  0  0  0  0  0  0  0  0  0
    2.0701   -1.1104    0.0000 C   0  0  0  0  0  0  0  0  0  0  0  0
    1.3556   -1.5229    0.0000 C   0  0  0  0  0  0  0  0  0  0  0  0
   -1.8659   -1.4124    0.0000 C   0  0  0  0  0  0  0  0  0  0  0  0
   -1.4534   -2.1269    0.0000 F   0  0  0  0  0  0  0  0  0  0  0  0
   -2.6909   -1.4124    0.0000 C   0  0  0  0  0  0  0  0  0  0  0  0
   -3.1034   -0.6979    0.0000 C   0  0  0  0  0  0  0  0  0  0  0  0
   -3.9284   -0.6979    0.0000 C   0  0  0  0  0  0  0  0  0  0  0  0
   -4.3409    0.0165    0.0000 O   0  0  0  0  0  0  0  0  0  0  0  0
   -4.3409   -1.4124    0.0000 N   0  0  0  0  0  0  0  0  0  0  0  0
   -5.1659   -1.4124    0.0000 C   0  0  0  0  0  0  0  0  0  0  0  0
   -5.5784   -0.6979    0.0000 C   0  0  0  0  0  0  0  0  0  0  0  0
   -5.1659    0.0165    0.0000 C   0  0  0  0  0  0  0  0  0  0  0  0
   -6.4034   -0.6979    0.0000 C   0  0  0  0  0  0  0  0  0  0  0  0
   -6.8159   -1.4124    0.0000 C   0  0  0  0  0  0  0  0  0  0  0  0
   -6.4034   -2.1269    0.0000 C   0  0  0  0  0  0  0  0  0  0  0  0
   -5.5784   -2.1269    0.0000 C   0  0  0  0  0  0  0  0  0  0  0  0
   -5.1659   -2.8414    0.0000 N   0  0  0  0  0  0  0  0  0  0  0  0
  1  2  1  0  0  0  0
  2  3  1  0  0  0  0
  3  4  1  0  0  0  0
  4  5  1  0  0  0  0
  4  6  1  0  0  0  0
  6  7  1  0  0  0  0
  7  8  4  0  0  0  0
  8  9  4  0  0  0  0
  9 10  1  0  0  0  0
 10 11  4  0  0  0  0
 11 12  4  0  0  0  0
 12 13  4  0  0  0  0
 13 14  4  0  0  0  0
 10 14  4  0  0  0  0
 14 15  2  0  0  0  0
 13 16  1  0  0  0  0
 16 17  1  0  0  0  0
 17 18  1  0  0  0  0
 18 19  1  0  0  0  0
 12 19  1  0  0  0  0
  9 20  4  0  0  0  0
 20 21  1  0  0  0  0
 20 22  4  0  0  0  0
 22 23  4  0  0  0  0
  7 23  4  0  0  0  0
 23 24  1  0  0  0  0
 24 25  2  0  0  0  0
 24 26  1  0  0  0  0
 26 27  1  0  0  0  0
 27 28  4  0  0  0  0
 28 29  1  0  0  0  0
 28 30  4  0  0  0  0
 30 31  4  0  0  0  0
 31 32  4  0  0  0  0
 32 33  4  0  0  0  0
 27 33  4  0  0  0  0
 33 34  1  0  0  0  0
M  END
> <IC50(uM)>
0.009999999999999998

> <Outcome>
1.0

> <BindingDB ID>
1020402; 1020403

> <BindingDB MonomerID>
490358

> <BindingDB Ligand Name>
N-(2-amino-6-methylphenyl)-5-fluoro-4-(3-oxo-5,6,7,8-tetrahydro[1,2,4]triazolo[4,3-a]pyridin-2(3H)-yl)-2-[(2S)-pentan-2-yloxy]benzamide::US10968216, Example 26

> <Curation/DataSource>
US Patent

> <Article DOI>
?

> <PMID>
?

> <Patent Number>
US10968216

> <Authors>
Gradl, SN; Nguyen, D; Eis, K; Gunther, J; Stellfeld, T; Janzer, A; Christian, S; Mueller, T; Sheikh, SE; Zhou, HJ; Zhao, C; Sykes, DB; Ferrara, SJ; Liu, K; Herbert, SA; Merz, C; Niehues, M; Nising, CF; Schafer, M; Zimmermann, K; Knablein, J; Thede, K; Faupel, T

> <Link to Ligand in BindingDB>
http://www.bindingdb.org/bind/chemsearch/marvin/MolStructure.jsp?monomerid=490358

> <Link to Ligand-Target Pair in BindingDB>
http://www.bindingdb.org/jsp/dbsearch/PrimarySearch_ki.jsp?energyterm=kJ/mole&tag=r21&monomerid=490358&enzyme=Dihydroorotate+dehydrogenase&column=ki&startPg=0&Increment=50&submit=Search

> <PubChem CID>
142335882

> <PubChem SID>
447117085

$$$$

  Mrv2115 07222212352D          

 34 36  0  0  0  0            999 V2000
    2.1434   -3.7125    0.0000 C   0  0  0  0  0  0  0  0  0  0  0  0
    1.4289   -4.1250    0.0000 C   0  0  0  0  0  0  0  0  0  0  0  0
    1.4289   -4.9500    0.0000 N   0  0  0  0  0  0  0  0  0  0  0  0
    0.7615   -5.4349    0.0000 C   0  0  0  0  0  0  0  0  0  0  0  0
   -0.0231   -5.1800    0.0000 Cl  0  0  0  0  0  0  0  0  0  0  0  0
    1.0164   -6.2195    0.0000 N   0  0  0  0  0  0  0  0  0  0  0  0
    1.8414   -6.2195    0.0000 N   0  0  0  0  0  0  0  0  0  0  0  0
    2.3264   -6.8870    0.0000 C   0  0  0  0  0  0  0  0  0  0  0  0
    3.1468   -6.8007    0.0000 C   0  0  0  0  0  0  0  0  0  0  0  0
    3.6318   -7.4682    0.0000 C   0  0  0  0  0  0  0  0  0  0  0  0
    4.4522   -7.3820    0.0000 O   0  0  0  0  0  0  0  0  0  0  0  0
    4.7878   -6.6283    0.0000 C   0  0  0  0  0  0  0  0  0  0  0  0
    4.3029   -5.9608    0.0000 C   0  0  0  0  0  0  0  0  0  0  0  0
    5.6083   -6.5420    0.0000 C   0  0  0  0  0  0  0  0  0  0  0  0
    5.6945   -7.3625    0.0000 F   0  0  0  0  0  0  0  0  0  0  0  0
    5.5221   -5.7216    0.0000 F   0  0  0  0  0  0  0  0  0  0  0  0
    6.4288   -6.4558    0.0000 F   0  0  0  0  0  0  0  0  0  0  0  0
    3.2962   -8.2219    0.0000 C   0  0  0  0  0  0  0  0  0  0  0  0
    3.7811   -8.8893    0.0000 C   0  0  0  0  0  0  0  0  0  0  0  0
    3.4456   -9.6430    0.0000 O   0  0  0  0  0  0  0  0  0  0  0  0
    4.6016   -8.8031    0.0000 N   0  0  0  0  0  0  0  0  0  0  0  0
    5.0865   -9.4705    0.0000 C   0  0  0  0  0  0  0  0  0  0  0  0
    5.9070   -9.3843    0.0000 C   0  0  0  0  0  0  0  0  0  0  0  0
    6.2426   -8.6306    0.0000 F   0  0  0  0  0  0  0  0  0  0  0  0
    6.3919  -10.0517    0.0000 C   0  0  0  0  0  0  0  0  0  0  0  0
    6.0564  -10.8054    0.0000 C   0  0  0  0  0  0  0  0  0  0  0  0
    5.2359  -10.8916    0.0000 C   0  0  0  0  0  0  0  0  0  0  0  0
    4.7510  -10.2242    0.0000 C   0  0  0  0  0  0  0  0  0  0  0  0
    3.9305  -10.3104    0.0000 F   0  0  0  0  0  0  0  0  0  0  0  0
    2.4757   -8.3081    0.0000 C   0  0  0  0  0  0  0  0  0  0  0  0
    1.9908   -7.6407    0.0000 C   0  0  0  0  0  0  0  0  0  0  0  0
    1.1703   -7.7269    0.0000 F   0  0  0  0  0  0  0  0  0  0  0  0
    2.0964   -5.4349    0.0000 C   0  0  0  0  0  0  0  0  0  0  0  0
    2.8810   -5.1800    0.0000 O   0  0  0  0  0  0  0  0  0  0  0  0
  1  2  1  0  0  0  0
  2  3  1  0  0  0  0
  3  4  4  0  0  0  0
  4  5  1  0  0  0  0
  4  6  4  0  0  0  0
  6  7  4  0  0  0  0
  7  8  1  0  0  0  0
  8  9  4  0  0  0  0
  9 10  4  0  0  0  0
 10 11  1  0  0  0  0
 11 12  1  0  0  0  0
 12 13  1  0  0  0  0
 12 14  1  0  0  0  0
 14 15  1  0  0  0  0
 14 16  1  0  0  0  0
 14 17  1  0  0  0  0
 10 18  4  0  0  0  0
 18 19  1  0  0  0  0
 19 20  2  0  0  0  0
 19 21  1  0  0  0  0
 21 22  1  0  0  0  0
 22 23  4  0  0  0  0
 23 24  1  0  0  0  0
 23 25  4  0  0  0  0
 25 26  4  0  0  0  0
 26 27  4  0  0  0  0
 27 28  4  0  0  0  0
 22 28  4  0  0  0  0
 28 29  1  0  0  0  0
 18 30  4  0  0  0  0
 30 31  4  0  0  0  0
  8 31  4  0  0  0  0
 31 32  1  0  0  0  0
  7 33  4  0  0  0  0
  3 33  4  0  0  0  0
 33 34  2  0  0  0  0
M  END
> <IC50(uM)>
0.035

> <Outcome>
1.0

> <BindingDB ID>
1098723; 972569

> <BindingDB MonomerID>
470443

> <BindingDB Ligand Name>
4-(3-chloro-4-ethyl-5-oxo-4,5-dihydro-1H-1,2,4-triazol-1-yl)-N-(2,6-difluorophenyl)-5-fluoro-2-{[(2S)-1,1,1-trifluoropropan-2-yl]oxy}benzamide::US10815215, Example 111::US11130745, Example 111; 4-(3-chloro-4-ethyl-5-oxo-4,5-dihydro-1H-1,2,4-triazol-1-yl)-N-(2,6-difluorophenyl)-5-fluoro-2-{[(2S)-1,1,1-trifluoropropan-2-yl]oxy}benzamide::US10815215, Example 111

> <Curation/DataSource>
US Patent

> <Article DOI>
?

> <PMID>
?

> <Patent Number>
US11130745; US10815215

> <Authors>
Gradl, SN; Nguyen, D; Eis, K; Gunther, J; Stellfeld, T; Janzer, A; Christian, S; Muller, T; Sheikh, SE; Sykes, DB; Ferrara, SJ; Krober, M; Merz, C; Niehues, M; Schafer, M; Zimmermann, K; Nising, CF; Gradl, SN; Nguyen, D; Eis, K; Gunther, J; Stellfeld, T; Janzer, A; Christian, S; Muller, T; Sheikh, SE; Zhou, HJ; Zhao, C; Sykes, DB; Ferrara, SJ; Liu, K; Krober, M; Merz, C; Niehues, M; Schafer, M; Zimmermann, K; Nising, CF

> <Link to Ligand in BindingDB>
http://www.bindingdb.org/bind/chemsearch/marvin/MolStructure.jsp?monomerid=470443

> <Link to Ligand-Target Pair in BindingDB>
http://www.bindingdb.org/jsp/dbsearch/PrimarySearch_ki.jsp?energyterm=kJ/mole&tag=r21&monomerid=470443&enzyme=Dihydroorotate+dehydrogenase&column=ki&startPg=0&Increment=50&submit=Search

> <PubChem CID>
134469887

> <PubChem SID>
441609620

$$$$

  Mrv2115 07222212352D          

 36 38  0  0  0  0            999 V2000
    2.1434   -3.7125    0.0000 C   0  0  0  0  0  0  0  0  0  0  0  0
    1.4289   -4.1250    0.0000 C   0  0  0  0  0  0  0  0  0  0  0  0
    1.4289   -4.9500    0.0000 N   0  0  0  0  0  0  0  0  0  0  0  0
    0.7615   -5.4349    0.0000 C   0  0  0  0  0  0  0  0  0  0  0  0
   -0.0231   -5.1800    0.0000 C   0  0  0  0  0  0  0  0  0  0  0  0
   -0.1946   -4.3730    0.0000 O   0  0  0  0  0  0  0  0  0  0  0  0
   -0.6362   -5.7320    0.0000 O   0  0  0  0  0  0  0  0  0  0  0  0
    1.0164   -6.2195    0.0000 N   0  0  0  0  0  0  0  0  0  0  0  0
    1.8414   -6.2195    0.0000 N   0  0  0  0  0  0  0  0  0  0  0  0
    2.3264   -6.8870    0.0000 C   0  0  0  0  0  0  0  0  0  0  0  0
    3.1468   -6.8007    0.0000 C   0  0  0  0  0  0  0  0  0  0  0  0
    3.6318   -7.4682    0.0000 C   0  0  0  0  0  0  0  0  0  0  0  0
    4.4522   -7.3820    0.0000 O   0  0  0  0  0  0  0  0  0  0  0  0
    4.7878   -6.6283    0.0000 C   0  0  0  0  0  0  0  0  0  0  0  0
    4.3029   -5.9608    0.0000 C   0  0  0  0  0  0  0  0  0  0  0  0
    5.6083   -6.5420    0.0000 C   0  0  0  0  0  0  0  0  0  0  0  0
    5.6945   -7.3625    0.0000 F   0  0  0  0  0  0  0  0  0  0  0  0
    5.5221   -5.7216    0.0000 F   0  0  0  0  0  0  0  0  0  0  0  0
    6.4288   -6.4558    0.0000 F   0  0  0  0  0  0  0  0  0  0  0  0
    3.2962   -8.2219    0.0000 C   0  0  0  0  0  0  0  0  0  0  0  0
    3.7811   -8.8893    0.0000 C   0  0  0  0  0  0  0  0  0  0  0  0
    3.4456   -9.6430    0.0000 O   0  0  0  0  0  0  0  0  0  0  0  0
    4.6016   -8.8031    0.0000 N   0  0  0  0  0  0  0  0  0  0  0  0
    5.0865   -9.4705    0.0000 C   0  0  0  0  0  0  0  0  0  0  0  0
    5.9070   -9.3843    0.0000 C   0  0  0  0  0  0  0  0  0  0  0  0
    6.2426   -8.6306    0.0000 F   0  0  0  0  0  0  0  0  0  0  0  0
    6.3919  -10.0517    0.0000 C   0  0  0  0  0  0  0  0  0  0  0  0
    6.0564  -10.8054    0.0000 C   0  0  0  0  0  0  0  0  0  0  0  0
    5.2359  -10.8916    0.0000 C   0  0  0  0  0  0  0  0  0  0  0  0
    4.7510  -10.2242    0.0000 C   0  0  0  0  0  0  0  0  0  0  0  0
    3.9305  -10.3104    0.0000 Cl  0  0  0  0  0  0  0  0  0  0  0  0
    2.4757   -8.3081    0.0000 C   0  0  0  0  0  0  0  0  0  0  0  0
    1.9908   -7.6407    0.0000 C   0  0  0  0  0  0  0  0  0  0  0  0
    1.1703   -7.7269    0.0000 F   0  0  0  0  0  0  0  0  0  0  0  0
    2.0964   -5.4349    0.0000 C   0  0  0  0  0  0  0  0  0  0  0  0
    2.8810   -5.1800    0.0000 O   0  0  0  0  0  0  0  0  0  0  0  0
  1  2  1  0  0  0  0
  2  3  1  0  0  0  0
  3  4  4  0  0  0  0
  4  5  1  0  0  0  0
  5  6  2  0  0  0  0
  5  7  1  0  0  0  0
  4  8  4  0  0  0  0
  8  9  4  0  0  0  0
  9 10  1  0  0  0  0
 10 11  4  0  0  0  0
 11 12  4  0  0  0  0
 12 13  1  0  0  0  0
 13 14  1  0  0  0  0
 14 15  1  0  0  0  0
 14 16  1  0  0  0  0
 16 17  1  0  0  0  0
 16 18  1  0  0  0  0
 16 19  1  0  0  0  0
 12 20  4  0  0  0  0
 20 21  1  0  0  0  0
 21 22  2  0  0  0  0
 21 23  1  0  0  0  0
 23 24  1  0  0  0  0
 24 25  4  0  0  0  0
 25 26  1  0  0  0  0
 25 27  4  0  0  0  0
 27 28  4  0  0  0  0
 28 29  4  0  0  0  0
 29 30  4  0  0  0  0
 24 30  4  0  0  0  0
 30 31  1  0  0  0  0
 20 32  4  0  0  0  0
 32 33  4  0  0  0  0
 10 33  4  0  0  0  0
 33 34  1  0  0  0  0
  9 35  4  0  0  0  0
  3 35  4  0  0  0  0
 35 36  2  0  0  0  0
M  END
> <IC50(uM)>
0.0015

> <Outcome>
1.0

> <BindingDB ID>
972674; 1098828

> <BindingDB MonomerID>
470552

> <BindingDB Ligand Name>
1-(4-[(2-chloro-6-fluorophenyl)carbamoyl]-2-fluoro-5-{[(2S)-1,1,1-trifluoropropan-2-yl]oxy}phenyl)-4-ethyl-5-oxo-4,5-dihydro-1H-1,2,4-triazole-3-carboxylic acid::US10815215, Example 212; 1-(4-[(2-chloro-6-fluorophenyl)carbamoyl]-2-fluoro-5-{[(2S)-1,1,1-trifluoropropan-2-yl]oxy}phenyl)-4-ethyl-5-oxo-4,5-dihydro-1H-1,2,4-triazole-3-carboxylic acid::US10815215, Example 212::US11130745, Example 212

> <Curation/DataSource>
US Patent

> <Article DOI>
?

> <PMID>
?

> <Patent Number>
US10815215; US11130745

> <Authors>
Gradl, SN; Nguyen, D; Eis, K; Gunther, J; Stellfeld, T; Janzer, A; Christian, S; Muller, T; Sheikh, SE; Zhou, HJ; Zhao, C; Sykes, DB; Ferrara, SJ; Liu, K; Krober, M; Merz, C; Niehues, M; Schafer, M; Zimmermann, K; Nising, CF; Gradl, SN; Nguyen, D; Eis, K; Gunther, J; Stellfeld, T; Janzer, A; Christian, S; Muller, T; Sheikh, SE; Sykes, DB; Ferrara, SJ; Krober, M; Merz, C; Niehues, M; Schafer, M; Zimmermann, K; Nising, CF

> <Link to Ligand in BindingDB>
http://www.bindingdb.org/bind/chemsearch/marvin/MolStructure.jsp?monomerid=470552

> <Link to Ligand-Target Pair in BindingDB>
http://www.bindingdb.org/jsp/dbsearch/PrimarySearch_ki.jsp?energyterm=kJ/mole&tag=r21&monomerid=470552&enzyme=Dihydroorotate+dehydrogenase&column=ki&startPg=0&Increment=50&submit=Search

> <PubChem CID>
134470146

> <PubChem SID>
441609728

$$$$

  Mrv2115 07222212352D          

 20 21  0  0  0  0            999 V2000
   -0.1067   -0.0616    0.0000 C   0  0  0  0  0  0  0  0  0  0  0  0
    0.6078   -0.4741    0.0000 C   0  0  0  0  0  0  0  0  0  0  0  0
    1.3222   -0.0616    0.0000 N   0  0  0  0  0  0  0  0  0  0  0  0
    2.0367   -0.4741    0.0000 C   0  0  0  0  0  0  0  0  0  0  0  0
    2.7512   -0.0616    0.0000 O   0  0  0  0  0  0  0  0  0  0  0  0
    2.0367   -1.2991    0.0000 C   0  0  0  0  0  0  0  0  0  0  0  0
    1.3693   -1.7840    0.0000 C   0  0  0  0  0  0  0  0  0  0  0  0
    0.5846   -1.5291    0.0000 O   0  0  0  0  0  0  0  0  0  0  0  0
    1.6242   -2.5687    0.0000 C   0  0  0  0  0  0  0  0  0  0  0  0
    2.4492   -2.5687    0.0000 S   0  0  0  0  0  0  0  0  0  0  0  0
    2.7041   -1.7840    0.0000 C   0  0  0  0  0  0  0  0  0  0  0  0
    3.4888   -1.5291    0.0000 N   0  0  0  0  0  0  0  0  0  0  0  0
    4.1019   -2.0811    0.0000 C   0  0  0  0  0  0  0  0  0  0  0  0
    4.8865   -1.8262    0.0000 C   0  0  0  0  0  0  0  0  0  0  0  0
    5.4996   -2.3782    0.0000 C   0  0  0  0  0  0  0  0  0  0  0  0
    5.3281   -3.1852    0.0000 C   0  0  0  0  0  0  0  0  0  0  0  0
    5.9411   -3.7372    0.0000 C   0  0  0  0  0  0  0  0  0  0  0  0
    4.5434   -3.4401    0.0000 C   0  0  0  0  0  0  0  0  0  0  0  0
    4.3719   -4.2471    0.0000 C   0  0  0  0  0  0  0  0  0  0  0  0
    3.9303   -2.8881    0.0000 C   0  0  0  0  0  0  0  0  0  0  0  0
  1  2  1  0  0  0  0
  2  3  1  0  0  0  0
  3  4  1  0  0  0  0
  4  5  2  0  0  0  0
  4  6  1  0  0  0  0
  6  7  4  0  0  0  0
  7  8  1  0  0  0  0
  7  9  4  0  0  0  0
  9 10  4  0  0  0  0
 10 11  4  0  0  0  0
  6 11  4  0  0  0  0
 11 12  1  0  0  0  0
 12 13  1  0  0  0  0
 13 14  4  0  0  0  0
 14 15  4  0  0  0  0
 15 16  4  0  0  0  0
 16 17  1  0  0  0  0
 16 18  4  0  0  0  0
 18 19  1  0  0  0  0
 18 20  4  0  0  0  0
 13 20  4  0  0  0  0
M  END
> <IC50(uM)>
50.0

> <Outcome>
0.0

> <BindingDB ID>
51079158

> <BindingDB MonomerID>
50441266

> <BindingDB Ligand Name>
CHEMBL2431483

> <Curation/DataSource>
ChEMBL

> <Article DOI>
10.1021/jm400938g

> <PMID>
24073986

> <Patent Number>
?

> <Authors>
Xu, M; Zhu, J; Diao, Y; Zhou, H; Ren, X; Sun, D; Huang, J; Han, D; Zhao, Z; Zhu, L; Xu, Y; Li, H

> <Link to Ligand in BindingDB>
http://www.bindingdb.org/bind/chemsearch/marvin/MolStructure.jsp?monomerid=50441266

> <Link to Ligand-Target Pair in BindingDB>
http://www.bindingdb.org/jsp/dbsearch/PrimarySearch_ki.jsp?energyterm=kJ/mole&tag=r21&monomerid=50441266&enzyme=Dihydroorotate+dehydrogenase&column=ki&startPg=0&Increment=50&submit=Search

> <PubChem CID>
91898827

> <PubChem SID>
175453583

$$$$

  Mrv2115 07222212352D          

 33 36  0  0  0  0            999 V2000
   -0.6284    2.1599    0.0000 C   0  0  0  0  0  0  0  0  0  0  0  0
   -1.4534    2.1599    0.0000 C   0  0  0  0  0  0  0  0  0  0  0  0
   -1.8659    1.4455    0.0000 C   0  0  0  0  0  0  0  0  0  0  0  0
   -2.6909    1.4455    0.0000 C   0  0  0  0  0  0  0  0  0  0  0  0
   -3.1034    2.1599    0.0000 C   0  0  0  0  0  0  0  0  0  0  0  0
   -3.1034    0.7310    0.0000 O   0  0  0  0  0  0  0  0  0  0  0  0
   -2.6909    0.0165    0.0000 C   0  0  0  0  0  0  0  0  0  0  0  0
   -1.8659    0.0165    0.0000 C   0  0  0  0  0  0  0  0  0  0  0  0
   -1.4534   -0.6979    0.0000 C   0  0  0  0  0  0  0  0  0  0  0  0
   -0.6284   -0.6979    0.0000 N   0  0  0  0  0  0  0  0  0  0  0  0
   -0.1435   -1.3654    0.0000 N   0  0  0  0  0  0  0  0  0  0  0  0
    0.6411   -1.1104    0.0000 C   0  0  0  0  0  0  0  0  0  0  0  0
    0.6411   -0.2854    0.0000 N   0  0  0  0  0  0  0  0  0  0  0  0
   -0.1435   -0.0305    0.0000 C   0  0  0  0  0  0  0  0  0  0  0  0
   -0.3984    0.7541    0.0000 O   0  0  0  0  0  0  0  0  0  0  0  0
    1.3556    0.1271    0.0000 C   0  0  0  0  0  0  0  0  0  0  0  0
    2.0701   -0.2854    0.0000 C   0  0  0  0  0  0  0  0  0  0  0  0
    2.0701   -1.1104    0.0000 C   0  0  0  0  0  0  0  0  0  0  0  0
    1.3556   -1.5229    0.0000 C   0  0  0  0  0  0  0  0  0  0  0  0
   -1.8659   -1.4124    0.0000 C   0  0  0  0  0  0  0  0  0  0  0  0
   -1.4534   -2.1269    0.0000 F   0  0  0  0  0  0  0  0  0  0  0  0
   -2.6909   -1.4124    0.0000 C   0  0  0  0  0  0  0  0  0  0  0  0
   -3.1034   -0.6979    0.0000 C   0  0  0  0  0  0  0  0  0  0  0  0
   -3.9284   -0.6979    0.0000 C   0  0  0  0  0  0  0  0  0  0  0  0
   -4.3409    0.0165    0.0000 O   0  0  0  0  0  0  0  0  0  0  0  0
   -4.3409   -1.4124    0.0000 N   0  0  0  0  0  0  0  0  0  0  0  0
   -3.9284   -2.1269    0.0000 C   0  0  0  0  0  0  0  0  0  0  0  0
   -3.1034   -2.1269    0.0000 C   0  0  0  0  0  0  0  0  0  0  0  0
   -2.6909   -2.8414    0.0000 C   0  0  0  0  0  0  0  0  0  0  0  0
   -3.1034   -3.5558    0.0000 N   0  0  0  0  0  0  0  0  0  0  0  0
   -2.6909   -4.2703    0.0000 C   0  0  0  0  0  0  0  0  0  0  0  0
   -3.9284   -3.5558    0.0000 C   0  0  0  0  0  0  0  0  0  0  0  0
   -4.3409   -2.8414    0.0000 C   0  0  0  0  0  0  0  0  0  0  0  0
  1  2  1  0  0  0  0
  2  3  1  0  0  0  0
  3  4  1  0  0  0  0
  4  5  1  0  0  0  0
  4  6  1  0  0  0  0
  6  7  1  0  0  0  0
  7  8  4  0  0  0  0
  8  9  4  0  0  0  0
  9 10  1  0  0  0  0
 10 11  4  0  0  0  0
 11 12  4  0  0  0  0
 12 13  4  0  0  0  0
 13 14  4  0  0  0  0
 10 14  4  0  0  0  0
 14 15  2  0  0  0  0
 13 16  1  0  0  0  0
 16 17  1  0  0  0  0
 17 18  1  0  0  0  0
 18 19  1  0  0  0  0
 12 19  1  0  0  0  0
  9 20  4  0  0  0  0
 20 21  1  0  0  0  0
 20 22  4  0  0  0  0
 22 23  4  0  0  0  0
  7 23  4  0  0  0  0
 23 24  1  0  0  0  0
 24 25  2  0  0  0  0
 24 26  1  0  0  0  0
 26 27  1  0  0  0  0
 27 28  1  0  0  0  0
 28 29  1  0  0  0  0
 29 30  1  0  0  0  0
 30 31  1  0  0  0  0
 30 32  1  0  0  0  0
 32 33  1  0  0  0  0
 27 33  1  0  0  0  0
M  END
> <IC50(uM)>
6.0

> <Outcome>
0.0

> <BindingDB ID>
1020399

> <BindingDB MonomerID>
490355

> <BindingDB Ligand Name>
5-fluoro-N-(1-methylpiperidin-4-yl)-4-(3-oxo-5,6,7,8-tetrahydro[1,2,4]triazolo[4,3-a]pyridin-2(3H)-yl)-2-[(2S)-pentan-2-yloxy]benzamide::US10968216, Example 23

> <Curation/DataSource>
US Patent

> <Article DOI>
?

> <PMID>
?

> <Patent Number>
US10968216

> <Authors>
Gradl, SN; Nguyen, D; Eis, K; Gunther, J; Stellfeld, T; Janzer, A; Christian, S; Mueller, T; Sheikh, SE; Zhou, HJ; Zhao, C; Sykes, DB; Ferrara, SJ; Liu, K; Herbert, SA; Merz, C; Niehues, M; Nising, CF; Schafer, M; Zimmermann, K; Knablein, J; Thede, K; Faupel, T

> <Link to Ligand in BindingDB>
http://www.bindingdb.org/bind/chemsearch/marvin/MolStructure.jsp?monomerid=490355

> <Link to Ligand-Target Pair in BindingDB>
http://www.bindingdb.org/jsp/dbsearch/PrimarySearch_ki.jsp?energyterm=kJ/mole&tag=r21&monomerid=490355&enzyme=Dihydroorotate+dehydrogenase&column=ki&startPg=0&Increment=50&submit=Search

> <PubChem CID>
134474323

> <PubChem SID>
447117082

$$$$

  Mrv2115 07222212352D          

 29 30  0  0  0  0            999 V2000
    1.4289   -6.6000    0.0000 C   0  0  0  0  0  0  0  0  0  0  0  0
    2.1434   -6.1875    0.0000 C   0  0  0  0  0  0  0  0  0  0  0  0
    2.8579   -6.6000    0.0000 C   0  0  0  0  0  0  0  0  0  0  0  0
    2.8579   -7.4250    0.0000 O   0  0  0  0  0  0  0  0  0  0  0  0
    3.5724   -6.1875    0.0000 C   0  0  0  0  0  0  0  0  0  0  0  0
    3.5724   -5.3625    0.0000 C   0  0  0  0  0  0  0  0  0  0  0  0
    3.5724   -4.5375    0.0000 N   0  0  0  0  0  0  0  0  0  0  0  0
    4.2868   -6.6000    0.0000 C   0  0  0  0  0  0  0  0  0  0  0  0
    4.2868   -7.4250    0.0000 O   0  0  0  0  0  0  0  0  0  0  0  0
    5.0013   -6.1875    0.0000 N   0  0  0  0  0  0  0  0  0  0  0  0
    5.7158   -6.6000    0.0000 C   0  0  0  0  0  0  0  0  0  0  0  0
    6.4302   -6.1875    0.0000 C   0  0  0  0  0  0  0  0  0  0  0  0
    7.1447   -6.6000    0.0000 C   0  0  0  0  0  0  0  0  0  0  0  0
    7.1447   -7.4250    0.0000 C   0  0  0  0  0  0  0  0  0  0  0  0
    7.8592   -7.8375    0.0000 C   0  0  0  0  0  0  0  0  0  0  0  0
    8.5737   -7.4250    0.0000 C   0  0  0  0  0  0  0  0  0  0  0  0
    9.2881   -7.8375    0.0000 C   0  0  0  0  0  0  0  0  0  0  0  0
   10.0026   -7.4250    0.0000 F   0  0  0  0  0  0  0  0  0  0  0  0
    9.2881   -8.6625    0.0000 C   0  0  0  0  0  0  0  0  0  0  0  0
   10.0026   -9.0750    0.0000 F   0  0  0  0  0  0  0  0  0  0  0  0
    8.5737   -9.0750    0.0000 C   0  0  0  0  0  0  0  0  0  0  0  0
    8.5737   -9.9000    0.0000 F   0  0  0  0  0  0  0  0  0  0  0  0
    7.8592   -8.6625    0.0000 C   0  0  0  0  0  0  0  0  0  0  0  0
    6.4302   -7.8375    0.0000 C   0  0  0  0  0  0  0  0  0  0  0  0
    6.4302   -8.6625    0.0000 C   0  0  0  0  0  0  0  0  0  0  0  0
    5.7158   -9.0750    0.0000 O   0  0  0  0  0  0  0  0  0  0  0  0
    7.1447   -9.0750    0.0000 O   0  0  0  0  0  0  0  0  0  0  0  0
    7.1447   -9.9000    0.0000 C   0  0  0  0  0  0  0  0  0  0  0  0
    5.7158   -7.4250    0.0000 C   0  0  0  0  0  0  0  0  0  0  0  0
  1  2  1  0  0  0  0
  2  3  1  0  0  0  0
  3  4  2  0  0  0  0
  3  5  1  0  0  0  0
  5  6  1  0  0  0  0
  6  7  3  0  0  0  0
  5  8  1  0  0  0  0
  8  9  2  0  0  0  0
  8 10  1  0  0  0  0
 10 11  1  0  0  0  0
 11 12  4  0  0  0  0
 12 13  4  0  0  0  0
 13 14  4  0  0  0  0
 14 15  1  0  0  0  0
 15 16  4  0  0  0  0
 16 17  4  0  0  0  0
 17 18  1  0  0  0  0
 17 19  4  0  0  0  0
 19 20  1  0  0  0  0
 19 21  4  0  0  0  0
 21 22  1  0  0  0  0
 21 23  4  0  0  0  0
 15 23  4  0  0  0  0
 14 24  4  0  0  0  0
 24 25  1  0  0  0  0
 25 26  2  0  0  0  0
 25 27  1  0  0  0  0
 27 28  1  0  0  0  0
 24 29  4  0  0  0  0
 11 29  4  0  0  0  0
M  END
> <IC50(uM)>
0.137

> <Outcome>
1.0

> <BindingDB ID>
50707381

> <BindingDB MonomerID>
50359702

> <BindingDB Ligand Name>
CHEMBL1929446

> <Curation/DataSource>
ChEMBL

> <Article DOI>
10.1016/j.bmcl.2011.10.052

> <PMID>
22078215

> <Patent Number>
?

> <Authors>
Erra, M; Moreno, I; Sanahuja, J; Andres, M; Reinoso, RF; Lozoya, E; Pizcueta, P; Godessart, N; Castro-Palomino, JC

> <Link to Ligand in BindingDB>
http://www.bindingdb.org/bind/chemsearch/marvin/MolStructure.jsp?monomerid=50359702

> <Link to Ligand-Target Pair in BindingDB>
http://www.bindingdb.org/jsp/dbsearch/PrimarySearch_ki.jsp?energyterm=kJ/mole&tag=r21&monomerid=50359702&enzyme=Dihydroorotate+dehydrogenase&column=ki&startPg=0&Increment=50&submit=Search

> <PubChem CID>
91930450

> <PubChem SID>
136963726

$$$$

  Mrv2115 07222212352D          

 34 37  0  0  0  0            999 V2000
   -1.8659    2.8744    0.0000 C   0  0  0  0  0  0  0  0  0  0  0  0
   -1.4534    2.1599    0.0000 C   0  0  0  0  0  0  0  0  0  0  0  0
   -1.8659    1.4455    0.0000 C   0  0  0  0  0  0  0  0  0  0  0  0
   -2.6909    1.4455    0.0000 C   0  0  0  0  0  0  0  0  0  0  0  0
   -3.1034    2.1599    0.0000 C   0  0  0  0  0  0  0  0  0  0  0  0
   -3.1034    0.7310    0.0000 O   0  0  0  0  0  0  0  0  0  0  0  0
   -2.6909    0.0165    0.0000 C   0  0  0  0  0  0  0  0  0  0  0  0
   -1.8659    0.0165    0.0000 C   0  0  0  0  0  0  0  0  0  0  0  0
   -1.4534   -0.6979    0.0000 C   0  0  0  0  0  0  0  0  0  0  0  0
   -0.6284   -0.6979    0.0000 N   0  0  0  0  0  0  0  0  0  0  0  0
   -0.1435   -1.3654    0.0000 N   0  0  0  0  0  0  0  0  0  0  0  0
    0.6411   -1.1104    0.0000 C   0  0  0  0  0  0  0  0  0  0  0  0
    0.6411   -0.2854    0.0000 N   0  0  0  0  0  0  0  0  0  0  0  0
   -0.1435   -0.0305    0.0000 C   0  0  0  0  0  0  0  0  0  0  0  0
   -0.3984    0.7541    0.0000 O   0  0  0  0  0  0  0  0  0  0  0  0
    1.3556    0.1271    0.0000 C   0  0  0  0  0  0  0  0  0  0  0  0
    2.0701   -0.2854    0.0000 C   0  0  0  0  0  0  0  0  0  0  0  0
    2.0701   -1.1104    0.0000 C   0  0  0  0  0  0  0  0  0  0  0  0
    1.3556   -1.5229    0.0000 C   0  0  0  0  0  0  0  0  0  0  0  0
   -1.8659   -1.4124    0.0000 C   0  0  0  0  0  0  0  0  0  0  0  0
   -1.4534   -2.1269    0.0000 F   0  0  0  0  0  0  0  0  0  0  0  0
   -2.6909   -1.4124    0.0000 C   0  0  0  0  0  0  0  0  0  0  0  0
   -3.1034   -0.6979    0.0000 C   0  0  0  0  0  0  0  0  0  0  0  0
   -3.9284   -0.6979    0.0000 C   0  0  0  0  0  0  0  0  0  0  0  0
   -4.3409    0.0165    0.0000 O   0  0  0  0  0  0  0  0  0  0  0  0
   -4.3409   -1.4124    0.0000 N   0  0  0  0  0  0  0  0  0  0  0  0
   -5.1659   -1.4124    0.0000 C   0  0  0  0  0  0  0  0  0  0  0  0
   -5.5784   -2.1269    0.0000 C   0  0  0  0  0  0  0  0  0  0  0  0
   -5.1659   -2.8414    0.0000 F   0  0  0  0  0  0  0  0  0  0  0  0
   -6.4034   -2.1269    0.0000 C   0  0  0  0  0  0  0  0  0  0  0  0
   -6.8159   -1.4124    0.0000 C   0  0  0  0  0  0  0  0  0  0  0  0
   -6.4034   -0.6979    0.0000 C   0  0  0  0  0  0  0  0  0  0  0  0
   -5.5784   -0.6979    0.0000 C   0  0  0  0  0  0  0  0  0  0  0  0
   -5.1659    0.0165    0.0000 F   0  0  0  0  0  0  0  0  0  0  0  0
  1  2  1  0  0  0  0
  2  3  1  0  0  0  0
  3  4  1  0  0  0  0
  4  5  1  0  0  0  0
  4  6  1  0  0  0  0
  6  7  1  0  0  0  0
  7  8  4  0  0  0  0
  8  9  4  0  0  0  0
  9 10  1  0  0  0  0
 10 11  4  0  0  0  0
 11 12  4  0  0  0  0
 12 13  4  0  0  0  0
 13 14  4  0  0  0  0
 10 14  4  0  0  0  0
 14 15  2  0  0  0  0
 13 16  1  0  0  0  0
 16 17  1  0  0  0  0
 17 18  1  0  0  0  0
 18 19  1  0  0  0  0
 12 19  1  0  0  0  0
  9 20  4  0  0  0  0
 20 21  1  0  0  0  0
 20 22  4  0  0  0  0
 22 23  4  0  0  0  0
  7 23  4  0  0  0  0
 23 24  1  0  0  0  0
 24 25  2  0  0  0  0
 24 26  1  0  0  0  0
 26 27  1  0  0  0  0
 27 28  4  0  0  0  0
 28 29  1  0  0  0  0
 28 30  4  0  0  0  0
 30 31  4  0  0  0  0
 31 32  4  0  0  0  0
 32 33  4  0  0  0  0
 27 33  4  0  0  0  0
 33 34  1  0  0  0  0
M  END
> <IC50(uM)>
0.004

> <Outcome>
1.0

> <BindingDB ID>
1020374; 1020373

> <BindingDB MonomerID>
490333

> <BindingDB Ligand Name>
N-(2,6-difluorophenyl)-5-fluoro-4-(3-oxo-5,6,7,8-tetrahydro[1,2,4]triazolo[4,3-a]pyridin-2(3H)-yl)-2-[(2S)-pentan-2-yloxy]benzamide::US10968216, Example 1

> <Curation/DataSource>
US Patent

> <Article DOI>
?

> <PMID>
?

> <Patent Number>
US10968216

> <Authors>
Gradl, SN; Nguyen, D; Eis, K; Gunther, J; Stellfeld, T; Janzer, A; Christian, S; Mueller, T; Sheikh, SE; Zhou, HJ; Zhao, C; Sykes, DB; Ferrara, SJ; Liu, K; Herbert, SA; Merz, C; Niehues, M; Nising, CF; Schafer, M; Zimmermann, K; Knablein, J; Thede, K; Faupel, T

> <Link to Ligand in BindingDB>
http://www.bindingdb.org/bind/chemsearch/marvin/MolStructure.jsp?monomerid=490333

> <Link to Ligand-Target Pair in BindingDB>
http://www.bindingdb.org/jsp/dbsearch/PrimarySearch_ki.jsp?energyterm=kJ/mole&tag=r21&monomerid=490333&enzyme=Dihydroorotate+dehydrogenase&column=ki&startPg=0&Increment=50&submit=Search

> <PubChem CID>
134474274

> <PubChem SID>
447117060

$$$$

  Mrv2115 07222212352D          

 28 29  0  0  0  0            999 V2000
    1.4289   -6.6000    0.0000 C   0  0  0  0  0  0  0  0  0  0  0  0
    2.1434   -6.1875    0.0000 C   0  0  0  0  0  0  0  0  0  0  0  0
    2.8579   -6.6000    0.0000 C   0  0  0  0  0  0  0  0  0  0  0  0
    2.8579   -7.4250    0.0000 O   0  0  0  0  0  0  0  0  0  0  0  0
    3.5724   -6.1875    0.0000 C   0  0  0  0  0  0  0  0  0  0  0  0
    3.5724   -5.3625    0.0000 C   0  0  0  0  0  0  0  0  0  0  0  0
    3.5724   -4.5375    0.0000 N   0  0  0  0  0  0  0  0  0  0  0  0
    4.2868   -6.6000    0.0000 C   0  0  0  0  0  0  0  0  0  0  0  0
    4.2868   -7.4250    0.0000 O   0  0  0  0  0  0  0  0  0  0  0  0
    5.0013   -6.1875    0.0000 N   0  0  0  0  0  0  0  0  0  0  0  0
    5.7158   -6.6000    0.0000 C   0  0  0  0  0  0  0  0  0  0  0  0
    6.4302   -6.1875    0.0000 C   0  0  0  0  0  0  0  0  0  0  0  0
    7.1447   -6.6000    0.0000 C   0  0  0  0  0  0  0  0  0  0  0  0
    7.1447   -7.4250    0.0000 C   0  0  0  0  0  0  0  0  0  0  0  0
    7.8592   -7.8375    0.0000 C   0  0  0  0  0  0  0  0  0  0  0  0
    8.5737   -7.4250    0.0000 C   0  0  0  0  0  0  0  0  0  0  0  0
    9.2881   -7.8375    0.0000 C   0  0  0  0  0  0  0  0  0  0  0  0
    9.2881   -8.6625    0.0000 C   0  0  0  0  0  0  0  0  0  0  0  0
    8.5737   -9.0750    0.0000 C   0  0  0  0  0  0  0  0  0  0  0  0
    8.5737   -9.9000    0.0000 O   0  0  0  0  0  0  0  0  0  0  0  0
    9.2881  -10.3125    0.0000 C   0  0  0  0  0  0  0  0  0  0  0  0
    7.8592   -8.6625    0.0000 C   0  0  0  0  0  0  0  0  0  0  0  0
    6.4302   -7.8375    0.0000 C   0  0  0  0  0  0  0  0  0  0  0  0
    6.4302   -8.6625    0.0000 C   0  0  0  0  0  0  0  0  0  0  0  0
    5.7158   -9.0750    0.0000 O   0  0  0  0  0  0  0  0  0  0  0  0
    7.1447   -9.0750    0.0000 O   0  0  0  0  0  0  0  0  0  0  0  0
    7.1447   -9.9000    0.0000 C   0  0  0  0  0  0  0  0  0  0  0  0
    5.7158   -7.4250    0.0000 C   0  0  0  0  0  0  0  0  0  0  0  0
  1  2  1  0  0  0  0
  2  3  1  0  0  0  0
  3  4  2  0  0  0  0
  3  5  1  0  0  0  0
  5  6  1  0  0  0  0
  6  7  3  0  0  0  0
  5  8  1  0  0  0  0
  8  9  2  0  0  0  0
  8 10  1  0  0  0  0
 10 11  1  0  0  0  0
 11 12  4  0  0  0  0
 12 13  4  0  0  0  0
 13 14  4  0  0  0  0
 14 15  1  0  0  0  0
 15 16  4  0  0  0  0
 16 17  4  0  0  0  0
 17 18  4  0  0  0  0
 18 19  4  0  0  0  0
 19 20  1  0  0  0  0
 20 21  1  0  0  0  0
 19 22  4  0  0  0  0
 15 22  4  0  0  0  0
 14 23  4  0  0  0  0
 23 24  1  0  0  0  0
 24 25  2  0  0  0  0
 24 26  1  0  0  0  0
 26 27  1  0  0  0  0
 23 28  4  0  0  0  0
 11 28  4  0  0  0  0
M  END
> <IC50(uM)>
0.026

> <Outcome>
1.0

> <BindingDB ID>
50707385

> <BindingDB MonomerID>
50359706

> <BindingDB Ligand Name>
CHEMBL1929450

> <Curation/DataSource>
ChEMBL

> <Article DOI>
10.1016/j.bmcl.2011.10.052

> <PMID>
22078215

> <Patent Number>
?

> <Authors>
Erra, M; Moreno, I; Sanahuja, J; Andres, M; Reinoso, RF; Lozoya, E; Pizcueta, P; Godessart, N; Castro-Palomino, JC

> <Link to Ligand in BindingDB>
http://www.bindingdb.org/bind/chemsearch/marvin/MolStructure.jsp?monomerid=50359706

> <Link to Ligand-Target Pair in BindingDB>
http://www.bindingdb.org/jsp/dbsearch/PrimarySearch_ki.jsp?energyterm=kJ/mole&tag=r21&monomerid=50359706&enzyme=Dihydroorotate+dehydrogenase&column=ki&startPg=0&Increment=50&submit=Search

> <PubChem CID>
91930454

> <PubChem SID>
136963730

$$$$

  Mrv2115 07222212352D          

 24 26  0  0  0  0            999 V2000
    6.3909   -2.8867    0.0000 C   0  0  0  0  0  0  0  0  0  0  0  0
    7.1054   -3.2992    0.0000 C   0  0  0  0  0  0  0  0  0  0  0  0
    7.8198   -2.8867    0.0000 C   0  0  0  0  0  0  0  0  0  0  0  0
    8.5343   -3.2992    0.0000 C   0  0  0  0  0  0  0  0  0  0  0  0
    9.2488   -2.8867    0.0000 N   0  0  0  0  0  0  0  0  0  0  0  0
    9.9633   -3.2992    0.0000 C   0  0  0  0  0  0  0  0  0  0  0  0
    9.9633   -4.1242    0.0000 O   0  0  0  0  0  0  0  0  0  0  0  0
   10.6777   -2.8867    0.0000 C   0  0  0  0  0  0  0  0  0  0  0  0
   10.7640   -2.0662    0.0000 C   0  0  0  0  0  0  0  0  0  0  0  0
   10.1509   -1.5142    0.0000 O   0  0  0  0  0  0  0  0  0  0  0  0
   11.5709   -1.8947    0.0000 C   0  0  0  0  0  0  0  0  0  0  0  0
   11.9834   -2.6091    0.0000 S   0  0  0  0  0  0  0  0  0  0  0  0
   11.4314   -3.2222    0.0000 C   0  0  0  0  0  0  0  0  0  0  0  0
   11.6029   -4.0292    0.0000 N   0  0  0  0  0  0  0  0  0  0  0  0
   12.3876   -4.2841    0.0000 C   0  0  0  0  0  0  0  0  0  0  0  0
   13.0006   -3.7321    0.0000 C   0  0  0  0  0  0  0  0  0  0  0  0
   13.7853   -3.9870    0.0000 C   0  0  0  0  0  0  0  0  0  0  0  0
   13.9568   -4.7940    0.0000 C   0  0  0  0  0  0  0  0  0  0  0  0
   14.7414   -5.0490    0.0000 C   0  0  0  0  0  0  0  0  0  0  0  0
   14.9129   -5.8559    0.0000 C   0  0  0  0  0  0  0  0  0  0  0  0
   14.2999   -6.4080    0.0000 C   0  0  0  0  0  0  0  0  0  0  0  0
   13.5152   -6.1530    0.0000 C   0  0  0  0  0  0  0  0  0  0  0  0
   13.3437   -5.3461    0.0000 C   0  0  0  0  0  0  0  0  0  0  0  0
   12.5591   -5.0911    0.0000 C   0  0  0  0  0  0  0  0  0  0  0  0
  1  2  1  0  0  0  0
  2  3  1  0  0  0  0
  3  4  1  0  0  0  0
  4  5  1  0  0  0  0
  5  6  1  0  0  0  0
  6  7  2  0  0  0  0
  6  8  1  0  0  0  0
  8  9  4  0  0  0  0
  9 10  1  0  0  0  0
  9 11  4  0  0  0  0
 11 12  4  0  0  0  0
 12 13  4  0  0  0  0
  8 13  4  0  0  0  0
 13 14  1  0  0  0  0
 14 15  1  0  0  0  0
 15 16  4  0  0  0  0
 16 17  4  0  0  0  0
 17 18  4  0  0  0  0
 18 19  4  0  0  0  0
 19 20  4  0  0  0  0
 20 21  4  0  0  0  0
 21 22  4  0  0  0  0
 22 23  4  0  0  0  0
 18 23  4  0  0  0  0
 23 24  4  0  0  0  0
 15 24  4  0  0  0  0
M  END
> <IC50(uM)>
50.0

> <Outcome>
0.0

> <BindingDB ID>
51079148

> <BindingDB MonomerID>
50441256

> <BindingDB Ligand Name>
CHEMBL2431493

> <Curation/DataSource>
ChEMBL

> <Article DOI>
10.1021/jm400938g

> <PMID>
24073986

> <Patent Number>
?

> <Authors>
Xu, M; Zhu, J; Diao, Y; Zhou, H; Ren, X; Sun, D; Huang, J; Han, D; Zhao, Z; Zhu, L; Xu, Y; Li, H

> <Link to Ligand in BindingDB>
http://www.bindingdb.org/bind/chemsearch/marvin/MolStructure.jsp?monomerid=50441256

> <Link to Ligand-Target Pair in BindingDB>
http://www.bindingdb.org/jsp/dbsearch/PrimarySearch_ki.jsp?energyterm=kJ/mole&tag=r21&monomerid=50441256&enzyme=Dihydroorotate+dehydrogenase&column=ki&startPg=0&Increment=50&submit=Search

> <PubChem CID>
91898817

> <PubChem SID>
175453573

$$$$

  Mrv2115 07222212352D          

 35 38  0  0  0  0            999 V2000
   -5.1659    1.4455    0.0000 C   0  0  0  0  0  0  0  0  0  0  0  0
   -5.5784    0.7310    0.0000 C   0  0  0  0  0  0  0  0  0  0  0  0
   -6.4034    0.7310    0.0000 C   0  0  0  0  0  0  0  0  0  0  0  0
   -6.8159    0.0165    0.0000 C   0  0  0  0  0  0  0  0  0  0  0  0
   -6.4034   -0.6979    0.0000 N   0  0  0  0  0  0  0  0  0  0  0  0
   -5.5784   -0.6979    0.0000 C   0  0  0  0  0  0  0  0  0  0  0  0
   -5.1659   -1.4124    0.0000 C   0  0  0  0  0  0  0  0  0  0  0  0
   -5.1659    0.0165    0.0000 C   0  0  0  0  0  0  0  0  0  0  0  0
   -4.3409    0.0165    0.0000 N   0  0  0  0  0  0  0  0  0  0  0  0
   -3.9284   -0.6979    0.0000 C   0  0  0  0  0  0  0  0  0  0  0  0
   -4.3409   -1.4124    0.0000 O   0  0  0  0  0  0  0  0  0  0  0  0
   -3.1034   -0.6979    0.0000 C   0  0  0  0  0  0  0  0  0  0  0  0
   -2.6909    0.0165    0.0000 C   0  0  0  0  0  0  0  0  0  0  0  0
   -1.8659    0.0165    0.0000 C   0  0  0  0  0  0  0  0  0  0  0  0
   -1.4534    0.7310    0.0000 F   0  0  0  0  0  0  0  0  0  0  0  0
   -1.4534   -0.6979    0.0000 C   0  0  0  0  0  0  0  0  0  0  0  0
   -0.6284   -0.6979    0.0000 N   0  0  0  0  0  0  0  0  0  0  0  0
   -0.1435   -1.3654    0.0000 N   0  0  0  0  0  0  0  0  0  0  0  0
    0.6411   -1.1104    0.0000 C   0  0  0  0  0  0  0  0  0  0  0  0
    0.6411   -0.2854    0.0000 N   0  0  0  0  0  0  0  0  0  0  0  0
   -0.1435   -0.0305    0.0000 C   0  0  0  0  0  0  0  0  0  0  0  0
   -0.3984    0.7541    0.0000 O   0  0  0  0  0  0  0  0  0  0  0  0
    1.3556    0.1271    0.0000 C   0  0  0  0  0  0  0  0  0  0  0  0
    2.0701   -0.2854    0.0000 C   0  0  0  0  0  0  0  0  0  0  0  0
    2.0701   -1.1104    0.0000 O   0  0  0  0  0  0  0  0  0  0  0  0
    1.3556   -1.5229    0.0000 C   0  0  0  0  0  0  0  0  0  0  0  0
   -1.8659   -1.4124    0.0000 C   0  0  0  0  0  0  0  0  0  0  0  0
   -2.6909   -1.4124    0.0000 C   0  0  0  0  0  0  0  0  0  0  0  0
   -3.1034   -2.1269    0.0000 O   0  0  0  0  0  0  0  0  0  0  0  0
   -2.6909   -2.8414    0.0000 C   0  0  0  0  0  0  0  0  0  0  0  0
   -1.8659   -2.8414    0.0000 C   0  0  0  0  0  0  0  0  0  0  0  0
   -3.1034   -3.5558    0.0000 C   0  0  0  0  0  0  0  0  0  0  0  0
   -3.8179   -3.1433    0.0000 F   0  0  0  0  0  0  0  0  0  0  0  0
   -2.3890   -3.9683    0.0000 F   0  0  0  0  0  0  0  0  0  0  0  0
   -3.5159   -4.2703    0.0000 F   0  0  0  0  0  0  0  0  0  0  0  0
  1  2  1  0  0  0  0
  2  3  4  0  0  0  0
  3  4  4  0  0  0  0
  4  5  4  0  0  0  0
  5  6  4  0  0  0  0
  6  7  1  0  0  0  0
  6  8  4  0  0  0  0
  2  8  4  0  0  0  0
  8  9  1  0  0  0  0
  9 10  1  0  0  0  0
 10 11  2  0  0  0  0
 10 12  1  0  0  0  0
 12 13  4  0  0  0  0
 13 14  4  0  0  0  0
 14 15  1  0  0  0  0
 14 16  4  0  0  0  0
 16 17  1  0  0  0  0
 17 18  4  0  0  0  0
 18 19  4  0  0  0  0
 19 20  4  0  0  0  0
 20 21  4  0  0  0  0
 17 21  4  0  0  0  0
 21 22  2  0  0  0  0
 20 23  1  0  0  0  0
 23 24  1  0  0  0  0
 24 25  1  0  0  0  0
 25 26  1  0  0  0  0
 19 26  1  0  0  0  0
 16 27  4  0  0  0  0
 27 28  4  0  0  0  0
 12 28  4  0  0  0  0
 28 29  1  0  0  0  0
 29 30  1  0  0  0  0
 30 31  1  0  0  0  0
 30 32  1  0  0  0  0
 32 33  1  0  0  0  0
 32 34  1  0  0  0  0
 32 35  1  0  0  0  0
M  END
> <IC50(uM)>
0.56

> <Outcome>
1.0

> <BindingDB ID>
1020601

> <BindingDB MonomerID>
490540

> <BindingDB Ligand Name>
N-(2,4-dimethylpyridin-3-yl)-5-fluoro-4-(3-oxo-5,6-dihydro-3H-[1,2,4]triazolo[3,4-c][1,4]oxazin-2(8H)-yl)-2-{[(2S)-1,1,1-trifluoropropan-2-yl]oxy}benzamide::US10968216, Example 208

> <Curation/DataSource>
US Patent

> <Article DOI>
?

> <PMID>
?

> <Patent Number>
US10968216

> <Authors>
Gradl, SN; Nguyen, D; Eis, K; Gunther, J; Stellfeld, T; Janzer, A; Christian, S; Mueller, T; Sheikh, SE; Zhou, HJ; Zhao, C; Sykes, DB; Ferrara, SJ; Liu, K; Herbert, SA; Merz, C; Niehues, M; Nising, CF; Schafer, M; Zimmermann, K; Knablein, J; Thede, K; Faupel, T

> <Link to Ligand in BindingDB>
http://www.bindingdb.org/bind/chemsearch/marvin/MolStructure.jsp?monomerid=490540

> <Link to Ligand-Target Pair in BindingDB>
http://www.bindingdb.org/jsp/dbsearch/PrimarySearch_ki.jsp?energyterm=kJ/mole&tag=r21&monomerid=490540&enzyme=Dihydroorotate+dehydrogenase&column=ki&startPg=0&Increment=50&submit=Search

> <PubChem CID>
134474014

> <PubChem SID>
447117266

$$$$

  Mrv2115 07222212352D          

 18 19  0  0  0  0            999 V2000
    1.4289   -2.4750    0.0000 O   0  0  0  0  0  0  0  0  0  0  0  0
    1.4289   -1.6500    0.0000 C   0  0  0  0  0  0  0  0  0  0  0  0
    0.7145   -1.2375    0.0000 C   0  0  0  0  0  0  0  0  0  0  0  0
    0.0000   -1.6500    0.0000 O   0  0  0  0  0  0  0  0  0  0  0  0
    0.7145   -0.4125    0.0000 C   0  0  0  0  0  0  0  0  0  0  0  0
    0.0000    0.0000    0.0000 C   0  0  0  0  0  0  0  0  0  0  0  0
    0.0000    0.8250    0.0000 C   0  0  0  0  0  0  0  0  0  0  0  0
   -0.7145    1.2375    0.0000 C   0  0  0  0  0  0  0  0  0  0  0  0
   -1.4289    0.8250    0.0000 Cl  0  0  0  0  0  0  0  0  0  0  0  0
   -0.7145    2.0625    0.0000 Cl  0  0  0  0  0  0  0  0  0  0  0  0
    1.4289    0.0000    0.0000 C   0  0  0  0  0  0  0  0  0  0  0  0
    1.4289    0.8250    0.0000 O   0  0  0  0  0  0  0  0  0  0  0  0
    2.1434   -0.4125    0.0000 C   0  0  0  0  0  0  0  0  0  0  0  0
    2.8579    0.0000    0.0000 C   0  0  0  0  0  0  0  0  0  0  0  0
    3.5724   -0.4125    0.0000 C   0  0  0  0  0  0  0  0  0  0  0  0
    3.5724   -1.2375    0.0000 C   0  0  0  0  0  0  0  0  0  0  0  0
    2.8579   -1.6500    0.0000 C   0  0  0  0  0  0  0  0  0  0  0  0
    2.1434   -1.2375    0.0000 C   0  0  0  0  0  0  0  0  0  0  0  0
  1  2  2  0  0  0  0
  2  3  1  0  0  0  0
  3  4  1  0  0  0  0
  3  5  2  0  0  0  0
  5  6  1  0  0  0  0
  6  7  1  0  0  0  0
  7  8  2  0  0  0  0
  8  9  1  0  0  0  0
  8 10  1  0  0  0  0
  5 11  1  0  0  0  0
 11 12  2  0  0  0  0
 11 13  1  0  0  0  0
 13 14  4  0  0  0  0
 14 15  4  0  0  0  0
 15 16  4  0  0  0  0
 16 17  4  0  0  0  0
 17 18  4  0  0  0  0
 13 18  4  0  0  0  0
  2 18  1  0  0  0  0
M  END
> <IC50(uM)>
0.067

> <Outcome>
1.0

> <BindingDB ID>
51338158

> <BindingDB MonomerID>
50541634

> <BindingDB Ligand Name>
CHEMBL1990817

> <Curation/DataSource>
ChEMBL

> <Article DOI>
10.1021/acs.jmedchem.0c00512

> <PMID>
32496056

> <Patent Number>
?

> <Authors>
Zuo, Z; Liu, X; Qian, X; Zeng, T; Sang, N; Liu, H; Zhou, Y; Tao, L; Zhou, X; Su, N; Yu, Y; Chen, Q; Luo, Y; Zhao, Y

> <Link to Ligand in BindingDB>
http://www.bindingdb.org/bind/chemsearch/marvin/MolStructure.jsp?monomerid=50541634

> <Link to Ligand-Target Pair in BindingDB>
http://www.bindingdb.org/jsp/dbsearch/PrimarySearch_ki.jsp?energyterm=kJ/mole&tag=r21&monomerid=50541634&enzyme=Dihydroorotate+dehydrogenase&column=ki&startPg=0&Increment=50&submit=Search

> <PubChem CID>
277767

> <PubChem SID>
442143197

$$$$

  Mrv2115 07222212352D          

 26 29  0  0  0  0            999 V2000
   -2.8579    3.3000    0.0000 C   0  0  0  0  0  0  0  0  0  0  0  0
   -2.8579    2.4750    0.0000 C   0  0  0  0  0  0  0  0  0  0  0  0
   -2.1434    2.0625    0.0000 C   0  0  0  0  0  0  0  0  0  0  0  0
   -2.1434    1.2375    0.0000 C   0  0  0  0  0  0  0  0  0  0  0  0
   -1.4289    0.8250    0.0000 C   0  0  0  0  0  0  0  0  0  0  0  0
   -0.7145    1.2375    0.0000 C   0  0  0  0  0  0  0  0  0  0  0  0
    0.0000    0.8250    0.0000 C   0  0  0  0  0  0  0  0  0  0  0  0
    0.0000   -0.0000    0.0000 C   0  0  0  0  0  0  0  0  0  0  0  0
    0.7145   -0.4125    0.0000 C   0  0  0  0  0  0  0  0  0  0  0  0
    1.4289    0.0000    0.0000 N   0  0  0  0  0  0  0  0  0  0  0  0
    2.1434   -0.4125    0.0000 C   0  0  0  0  0  0  0  0  0  0  0  0
    2.8579    0.0000    0.0000 C   0  0  0  0  0  0  0  0  0  0  0  0
    3.5724   -0.4125    0.0000 C   0  0  0  0  0  0  0  0  0  0  0  0
    3.5724   -1.2375    0.0000 N   0  0  0  0  0  0  0  0  0  0  0  0
    2.8579   -1.6500    0.0000 C   0  0  0  0  0  0  0  0  0  0  0  0
    2.1434   -1.2375    0.0000 C   0  0  0  0  0  0  0  0  0  0  0  0
    1.4289   -1.6500    0.0000 C   0  0  0  0  0  0  0  0  0  0  0  0
    1.4289   -2.4750    0.0000 O   0  0  0  0  0  0  0  0  0  0  0  0
    0.7145   -1.2375    0.0000 C   0  0  0  0  0  0  0  0  0  0  0  0
    0.0000   -1.6500    0.0000 C   0  0  0  0  0  0  0  0  0  0  0  0
   -0.7145   -2.0625    0.0000 N   0  0  0  0  0  0  0  0  0  0  0  0
   -0.7145   -0.4125    0.0000 C   0  0  0  0  0  0  0  0  0  0  0  0
   -1.4289   -0.0000    0.0000 C   0  0  0  0  0  0  0  0  0  0  0  0
   -2.8579    0.8250    0.0000 C   0  0  0  0  0  0  0  0  0  0  0  0
   -3.5724    1.2375    0.0000 C   0  0  0  0  0  0  0  0  0  0  0  0
   -3.5724    2.0625    0.0000 N   0  0  0  0  0  0  0  0  0  0  0  0
  1  2  1  0  0  0  0
  2  3  4  0  0  0  0
  3  4  4  0  0  0  0
  4  5  1  0  0  0  0
  5  6  4  0  0  0  0
  6  7  4  0  0  0  0
  7  8  4  0  0  0  0
  8  9  1  0  0  0  0
  9 10  4  0  0  0  0
 10 11  4  0  0  0  0
 11 12  4  0  0  0  0
 12 13  4  0  0  0  0
 13 14  4  0  0  0  0
 14 15  4  0  0  0  0
 15 16  4  0  0  0  0
 11 16  4  0  0  0  0
 16 17  4  0  0  0  0
 17 18  1  0  0  0  0
 17 19  4  0  0  0  0
  9 19  4  0  0  0  0
 19 20  1  0  0  0  0
 20 21  3  0  0  0  0
  8 22  4  0  0  0  0
 22 23  4  0  0  0  0
  5 23  4  0  0  0  0
  4 24  4  0  0  0  0
 24 25  4  0  0  0  0
 25 26  4  0  0  0  0
  2 26  4  0  0  0  0
M  END
> <IC50(uM)>
9.9

> <Outcome>
0.0

> <BindingDB ID>
50720830

> <BindingDB MonomerID>
50365494

> <BindingDB Ligand Name>
CHEMBL1957381

> <Curation/DataSource>
ChEMBL

> <Article DOI>
10.1016/j.bmcl.2012.01.046

> <PMID>
22321214

> <Patent Number>
?

> <Authors>
Bauer, U; Giordanetto, F; Bauer, M; O'Mahony, G; Johansson, KE; Knecht, W; Hartleib-Geschwindner, J; Carlsson, ET; Enroth, C

> <Link to Ligand in BindingDB>
http://www.bindingdb.org/bind/chemsearch/marvin/MolStructure.jsp?monomerid=50365494

> <Link to Ligand-Target Pair in BindingDB>
http://www.bindingdb.org/jsp/dbsearch/PrimarySearch_ki.jsp?energyterm=kJ/mole&tag=r21&monomerid=50365494&enzyme=Dihydroorotate+dehydrogenase&column=ki&startPg=0&Increment=50&submit=Search

> <PubChem CID>
57396593

> <PubChem SID>
136969556

$$$$

  Mrv2115 07222212352D          

 35 38  0  0  0  0            999 V2000
   -3.1034    2.1599    0.0000 C   0  0  0  0  0  0  0  0  0  0  0  0
   -2.6909    1.4455    0.0000 C   0  0  0  0  0  0  0  0  0  0  0  0
   -3.1034    0.7310    0.0000 O   0  0  0  0  0  0  0  0  0  0  0  0
   -2.6909    0.0165    0.0000 C   0  0  0  0  0  0  0  0  0  0  0  0
   -1.8659    0.0165    0.0000 C   0  0  0  0  0  0  0  0  0  0  0  0
   -1.4534   -0.6979    0.0000 C   0  0  0  0  0  0  0  0  0  0  0  0
   -0.6284   -0.6979    0.0000 N   0  0  0  0  0  0  0  0  0  0  0  0
   -0.1435   -1.3654    0.0000 N   0  0  0  0  0  0  0  0  0  0  0  0
    0.6411   -1.1104    0.0000 C   0  0  0  0  0  0  0  0  0  0  0  0
    0.6411   -0.2854    0.0000 N   0  0  0  0  0  0  0  0  0  0  0  0
   -0.1435   -0.0305    0.0000 C   0  0  0  0  0  0  0  0  0  0  0  0
   -0.3984    0.7541    0.0000 O   0  0  0  0  0  0  0  0  0  0  0  0
    1.3556    0.1271    0.0000 C   0  0  0  0  0  0  0  0  0  0  0  0
    2.0701   -0.2854    0.0000 C   0  0  0  0  0  0  0  0  0  0  0  0
    2.0701   -1.1104    0.0000 O   0  0  0  0  0  0  0  0  0  0  0  0
    1.3556   -1.5229    0.0000 C   0  0  0  0  0  0  0  0  0  0  0  0
   -1.8659   -1.4124    0.0000 C   0  0  0  0  0  0  0  0  0  0  0  0
   -1.4534   -2.1269    0.0000 F   0  0  0  0  0  0  0  0  0  0  0  0
   -2.6909   -1.4124    0.0000 C   0  0  0  0  0  0  0  0  0  0  0  0
   -3.1034   -0.6979    0.0000 C   0  0  0  0  0  0  0  0  0  0  0  0
   -3.9284   -0.6979    0.0000 C   0  0  0  0  0  0  0  0  0  0  0  0
   -4.3409    0.0165    0.0000 O   0  0  0  0  0  0  0  0  0  0  0  0
   -4.3409   -1.4124    0.0000 N   0  0  0  0  0  0  0  0  0  0  0  0
   -5.1659   -1.4124    0.0000 C   0  0  0  0  0  0  0  0  0  0  0  0
   -5.5784   -2.1269    0.0000 C   0  0  0  0  0  0  0  0  0  0  0  0
   -5.1659   -2.8414    0.0000 F   0  0  0  0  0  0  0  0  0  0  0  0
   -6.4034   -2.1269    0.0000 C   0  0  0  0  0  0  0  0  0  0  0  0
   -6.8159   -1.4124    0.0000 C   0  0  0  0  0  0  0  0  0  0  0  0
   -6.4034   -0.6979    0.0000 C   0  0  0  0  0  0  0  0  0  0  0  0
   -5.5784   -0.6979    0.0000 C   0  0  0  0  0  0  0  0  0  0  0  0
   -5.1659    0.0165    0.0000 Cl  0  0  0  0  0  0  0  0  0  0  0  0
   -1.8659    1.4455    0.0000 C   0  0  0  0  0  0  0  0  0  0  0  0
   -1.8659    0.6205    0.0000 F   0  0  0  0  0  0  0  0  0  0  0  0
   -1.8659    2.2705    0.0000 F   0  0  0  0  0  0  0  0  0  0  0  0
   -1.0409    1.4455    0.0000 F   0  0  0  0  0  0  0  0  0  0  0  0
  1  2  1  0  0  0  0
  2  3  1  0  0  0  0
  3  4  1  0  0  0  0
  4  5  4  0  0  0  0
  5  6  4  0  0  0  0
  6  7  1  0  0  0  0
  7  8  4  0  0  0  0
  8  9  4  0  0  0  0
  9 10  4  0  0  0  0
 10 11  4  0  0  0  0
  7 11  4  0  0  0  0
 11 12  2  0  0  0  0
 10 13  1  0  0  0  0
 13 14  1  0  0  0  0
 14 15  1  0  0  0  0
 15 16  1  0  0  0  0
  9 16  1  0  0  0  0
  6 17  4  0  0  0  0
 17 18  1  0  0  0  0
 17 19  4  0  0  0  0
 19 20  4  0  0  0  0
  4 20  4  0  0  0  0
 20 21  1  0  0  0  0
 21 22  2  0  0  0  0
 21 23  1  0  0  0  0
 23 24  1  0  0  0  0
 24 25  4  0  0  0  0
 25 26  1  0  0  0  0
 25 27  4  0  0  0  0
 27 28  4  0  0  0  0
 28 29  4  0  0  0  0
 29 30  4  0  0  0  0
 24 30  4  0  0  0  0
 30 31  1  0  0  0  0
  2 32  1  0  0  0  0
 32 33  1  0  0  0  0
 32 34  1  0  0  0  0
 32 35  1  0  0  0  0
M  END
> <IC50(uM)>
0.020999999999999998

> <Outcome>
1.0

> <BindingDB ID>
1020577; 1020573

> <BindingDB MonomerID>
490512

> <BindingDB Ligand Name>
N-(2-chloro-6-fluorophenyl)-5-fluoro-4-(3-oxo-5,6-dihydro-3H-[1,2,4]triazolo[3,4-c][1,4]oxazin-2(8H)-yl)-2-{[(2S)-1,1,1-trifluoropropan-2-yl]oxy}benzamide::US10968216, Example 180::US10968216, Example 184

> <Curation/DataSource>
US Patent

> <Article DOI>
?

> <PMID>
?

> <Patent Number>
US10968216

> <Authors>
Gradl, SN; Nguyen, D; Eis, K; Gunther, J; Stellfeld, T; Janzer, A; Christian, S; Mueller, T; Sheikh, SE; Zhou, HJ; Zhao, C; Sykes, DB; Ferrara, SJ; Liu, K; Herbert, SA; Merz, C; Niehues, M; Nising, CF; Schafer, M; Zimmermann, K; Knablein, J; Thede, K; Faupel, T

> <Link to Ligand in BindingDB>
http://www.bindingdb.org/bind/chemsearch/marvin/MolStructure.jsp?monomerid=490512

> <Link to Ligand-Target Pair in BindingDB>
http://www.bindingdb.org/jsp/dbsearch/PrimarySearch_ki.jsp?energyterm=kJ/mole&tag=r21&monomerid=490512&enzyme=Dihydroorotate+dehydrogenase&column=ki&startPg=0&Increment=50&submit=Search

> <PubChem CID>
134474400

> <PubChem SID>
447117239

$$$$

  Mrv2115 07222212352D          

 40 44  0  0  0  0            999 V2000
   -5.1659   -2.8414    0.0000 C   0  0  0  0  0  0  0  0  0  0  0  0
   -5.5784   -2.1269    0.0000 C   0  0  0  0  0  0  0  0  0  0  0  0
   -6.4034   -2.1269    0.0000 C   0  0  0  0  0  0  0  0  0  0  0  0
   -6.8159   -1.4124    0.0000 C   0  0  0  0  0  0  0  0  0  0  0  0
   -6.4034   -0.6979    0.0000 C   0  0  0  0  0  0  0  0  0  0  0  0
   -6.8159    0.0165    0.0000 C   0  0  0  0  0  0  0  0  0  0  0  0
   -7.2284    0.7310    0.0000 F   0  0  0  0  0  0  0  0  0  0  0  0
   -7.5304   -0.3960    0.0000 F   0  0  0  0  0  0  0  0  0  0  0  0
   -6.1015    0.4290    0.0000 F   0  0  0  0  0  0  0  0  0  0  0  0
   -5.5784   -0.6979    0.0000 C   0  0  0  0  0  0  0  0  0  0  0  0
   -5.1659   -1.4124    0.0000 C   0  0  0  0  0  0  0  0  0  0  0  0
   -4.3409   -1.4124    0.0000 N   0  0  0  0  0  0  0  0  0  0  0  0
   -3.9284   -0.6979    0.0000 C   0  0  0  0  0  0  0  0  0  0  0  0
   -4.3409    0.0165    0.0000 O   0  0  0  0  0  0  0  0  0  0  0  0
   -3.1034   -0.6979    0.0000 C   0  0  0  0  0  0  0  0  0  0  0  0
   -2.6909    0.0165    0.0000 C   0  0  0  0  0  0  0  0  0  0  0  0
   -1.8659    0.0165    0.0000 C   0  0  0  0  0  0  0  0  0  0  0  0
   -1.4534    0.7310    0.0000 F   0  0  0  0  0  0  0  0  0  0  0  0
   -1.4534   -0.6979    0.0000 C   0  0  0  0  0  0  0  0  0  0  0  0
   -0.6284   -0.6979    0.0000 N   0  0  0  0  0  0  0  0  0  0  0  0
   -0.1435   -1.3654    0.0000 N   0  0  0  0  0  0  0  0  0  0  0  0
    0.6411   -1.1104    0.0000 C   0  0  0  0  0  0  0  0  0  0  0  0
    0.6411   -0.2854    0.0000 N   0  0  0  0  0  0  0  0  0  0  0  0
   -0.1435   -0.0305    0.0000 C   0  0  0  0  0  0  0  0  0  0  0  0
   -0.3984    0.7541    0.0000 O   0  0  0  0  0  0  0  0  0  0  0  0
    1.3556    0.1271    0.0000 C   0  0  0  0  0  0  0  0  0  0  0  0
    2.0701   -0.2854    0.0000 C   0  0  0  0  0  0  0  0  0  0  0  0
    2.0701   -1.1104    0.0000 C   0  0  0  0  0  0  0  0  0  0  0  0
    1.3556   -1.5229    0.0000 C   0  0  0  0  0  0  0  0  0  0  0  0
   -1.8659   -1.4124    0.0000 C   0  0  0  0  0  0  0  0  0  0  0  0
   -2.6909   -1.4124    0.0000 C   0  0  0  0  0  0  0  0  0  0  0  0
   -3.1034   -2.1269    0.0000 O   0  0  0  0  0  0  0  0  0  0  0  0
   -2.6909   -2.8414    0.0000 C   0  0  0  0  0  0  0  0  0  0  0  0
   -1.8659   -2.8414    0.0000 C   0  0  0  0  0  0  0  0  0  0  0  0
   -3.1034   -3.5558    0.0000 C   0  0  0  0  0  0  0  0  0  0  0  0
   -2.6909   -4.2703    0.0000 C   0  0  0  0  0  0  0  0  0  0  0  0
   -3.1034   -4.9848    0.0000 C   0  0  0  0  0  0  0  0  0  0  0  0
   -3.9284   -4.9848    0.0000 C   0  0  0  0  0  0  0  0  0  0  0  0
   -4.3409   -4.2703    0.0000 C   0  0  0  0  0  0  0  0  0  0  0  0
   -3.9284   -3.5558    0.0000 C   0  0  0  0  0  0  0  0  0  0  0  0
  1  2  1  0  0  0  0
  2  3  4  0  0  0  0
  3  4  4  0  0  0  0
  4  5  4  0  0  0  0
  5  6  1  0  0  0  0
  6  7  1  0  0  0  0
  6  8  1  0  0  0  0
  6  9  1  0  0  0  0
  5 10  4  0  0  0  0
 10 11  4  0  0  0  0
  2 11  4  0  0  0  0
 11 12  1  0  0  0  0
 12 13  1  0  0  0  0
 13 14  2  0  0  0  0
 13 15  1  0  0  0  0
 15 16  4  0  0  0  0
 16 17  4  0  0  0  0
 17 18  1  0  0  0  0
 17 19  4  0  0  0  0
 19 20  1  0  0  0  0
 20 21  4  0  0  0  0
 21 22  4  0  0  0  0
 22 23  4  0  0  0  0
 23 24  4  0  0  0  0
 20 24  4  0  0  0  0
 24 25  2  0  0  0  0
 23 26  1  0  0  0  0
 26 27  1  0  0  0  0
 27 28  1  0  0  0  0
 28 29  1  0  0  0  0
 22 29  1  0  0  0  0
 19 30  4  0  0  0  0
 30 31  4  0  0  0  0
 15 31  4  0  0  0  0
 31 32  1  0  0  0  0
 32 33  1  0  0  0  0
 33 34  1  0  0  0  0
 33 35  1  0  0  0  0
 35 36  1  0  0  0  0
 36 37  1  0  0  0  0
 37 38  1  0  0  0  0
 38 39  1  0  0  0  0
 39 40  1  0  0  0  0
 35 40  1  0  0  0  0
M  END
> <IC50(uM)>
0.02

> <Outcome>
1.0

> <BindingDB ID>
1020560

> <BindingDB MonomerID>
490499

> <BindingDB Ligand Name>
2-[(1S)-1-cyclohexylethoxy]-5-fluoro-N-[2-methyl-5-(trifluoromethyl)phenyl]-4-(3-oxo-5,6,7,8-tetrahydro[1,2,4]triazolo[4,3-a]pyridin-2(3H)-yl)benzamide::US10968216, Example 167

> <Curation/DataSource>
US Patent

> <Article DOI>
?

> <PMID>
?

> <Patent Number>
US10968216

> <Authors>
Gradl, SN; Nguyen, D; Eis, K; Gunther, J; Stellfeld, T; Janzer, A; Christian, S; Mueller, T; Sheikh, SE; Zhou, HJ; Zhao, C; Sykes, DB; Ferrara, SJ; Liu, K; Herbert, SA; Merz, C; Niehues, M; Nising, CF; Schafer, M; Zimmermann, K; Knablein, J; Thede, K; Faupel, T

> <Link to Ligand in BindingDB>
http://www.bindingdb.org/bind/chemsearch/marvin/MolStructure.jsp?monomerid=490499

> <Link to Ligand-Target Pair in BindingDB>
http://www.bindingdb.org/jsp/dbsearch/PrimarySearch_ki.jsp?energyterm=kJ/mole&tag=r21&monomerid=490499&enzyme=Dihydroorotate+dehydrogenase&column=ki&startPg=0&Increment=50&submit=Search

> <PubChem CID>
134474525

> <PubChem SID>
447117226

$$$$

  Mrv2115 07222212352D          

 21 23  0  0  0  0            999 V2000
    4.0668    2.3479    0.0000 C   0  0  0  0  0  0  0  0  0  0  0  0
    3.3523    1.9354    0.0000 C   0  0  0  0  0  0  0  0  0  0  0  0
    3.3523    1.1104    0.0000 C   0  0  0  0  0  0  0  0  0  0  0  0
    2.6378    0.6979    0.0000 C   0  0  0  0  0  0  0  0  0  0  0  0
    2.6378   -0.1271    0.0000 N   0  0  0  0  0  0  0  0  0  0  0  0
    1.9233    1.1104    0.0000 N   0  0  0  0  0  0  0  0  0  0  0  0
    1.1387    0.8555    0.0000 N   0  0  0  0  0  0  0  0  0  0  0  0
    0.6538    1.5229    0.0000 C   0  0  0  0  0  0  0  0  0  0  0  0
   -0.1712    1.5229    0.0000 S   0  0  0  0  0  0  0  0  0  0  0  0
   -0.5837    0.8085    0.0000 C   0  0  0  0  0  0  0  0  0  0  0  0
   -1.4087    0.8085    0.0000 C   0  0  0  0  0  0  0  0  0  0  0  0
   -1.8212    0.0940    0.0000 C   0  0  0  0  0  0  0  0  0  0  0  0
   -2.6462    0.0940    0.0000 C   0  0  0  0  0  0  0  0  0  0  0  0
   -3.0587    0.8085    0.0000 C   0  0  0  0  0  0  0  0  0  0  0  0
   -3.8837    0.8085    0.0000 Cl  0  0  0  0  0  0  0  0  0  0  0  0
   -2.6462    1.5229    0.0000 C   0  0  0  0  0  0  0  0  0  0  0  0
   -3.0587    2.2374    0.0000 Cl  0  0  0  0  0  0  0  0  0  0  0  0
   -1.8212    1.5229    0.0000 C   0  0  0  0  0  0  0  0  0  0  0  0
    1.1387    2.1904    0.0000 N   0  0  0  0  0  0  0  0  0  0  0  0
    1.9233    1.9354    0.0000 C   0  0  0  0  0  0  0  0  0  0  0  0
    2.6378    2.3479    0.0000 N   0  0  0  0  0  0  0  0  0  0  0  0
  1  2  1  0  0  0  0
  2  3  4  0  0  0  0
  3  4  4  0  0  0  0
  4  5  1  0  0  0  0
  4  6  4  0  0  0  0
  6  7  4  0  0  0  0
  7  8  4  0  0  0  0
  8  9  1  0  0  0  0
  9 10  1  0  0  0  0
 10 11  1  0  0  0  0
 11 12  4  0  0  0  0
 12 13  4  0  0  0  0
 13 14  4  0  0  0  0
 14 15  1  0  0  0  0
 14 16  4  0  0  0  0
 16 17  1  0  0  0  0
 16 18  4  0  0  0  0
 11 18  4  0  0  0  0
  8 19  4  0  0  0  0
 19 20  4  0  0  0  0
  6 20  4  0  0  0  0
 20 21  4  0  0  0  0
  2 21  4  0  0  0  0
M  END
> <IC50(uM)>
100.0

> <Outcome>
0.0

> <BindingDB ID>
50970241

> <BindingDB MonomerID>
50397814

> <BindingDB Ligand Name>
CHEMBL2178511

> <Curation/DataSource>
ChEMBL

> <Article DOI>
10.1021/jm300157n

> <PMID>
22621375

> <Patent Number>
?

> <Authors>
Bedingfield, PT; Cowen, D; Acklam, P; Cunningham, F; Parsons, MR; McConkey, GA; Fishwick, CW; Johnson, AP

> <Link to Ligand in BindingDB>
http://www.bindingdb.org/bind/chemsearch/marvin/MolStructure.jsp?monomerid=50397814

> <Link to Ligand-Target Pair in BindingDB>
http://www.bindingdb.org/jsp/dbsearch/PrimarySearch_ki.jsp?energyterm=kJ/mole&tag=r21&monomerid=50397814&enzyme=Dihydroorotate+dehydrogenase&column=ki&startPg=0&Increment=50&submit=Search

> <PubChem CID>
60166619

> <PubChem SID>
163346838

$$$$

  Mrv2115 07222212352D          

 28 32  0  0  0  0            999 V2000
    3.3523   -0.2854    0.0000 O   0  0  0  0  0  0  0  0  0  0  0  0
    3.3523   -1.1104    0.0000 C   0  0  0  0  0  0  0  0  0  0  0  0
    4.0668   -1.5229    0.0000 C   0  0  0  0  0  0  0  0  0  0  0  0
    4.7812   -1.1104    0.0000 C   0  0  0  0  0  0  0  0  0  0  0  0
    5.4957   -1.5229    0.0000 C   0  0  0  0  0  0  0  0  0  0  0  0
    5.4957   -2.3479    0.0000 C   0  0  0  0  0  0  0  0  0  0  0  0
    4.7812   -2.7604    0.0000 C   0  0  0  0  0  0  0  0  0  0  0  0
    4.0668   -2.3479    0.0000 C   0  0  0  0  0  0  0  0  0  0  0  0
    3.3523   -2.7604    0.0000 C   0  0  0  0  0  0  0  0  0  0  0  0
    3.3523   -3.5854    0.0000 O   0  0  0  0  0  0  0  0  0  0  0  0
    2.6378   -2.3479    0.0000 C   0  0  0  0  0  0  0  0  0  0  0  0
    2.6378   -1.5229    0.0000 C   0  0  0  0  0  0  0  0  0  0  0  0
    1.8532   -1.2680    0.0000 N   0  0  0  0  0  0  0  0  0  0  0  0
    1.3683   -1.9354    0.0000 N   0  0  0  0  0  0  0  0  0  0  0  0
    1.8532   -2.6029    0.0000 N   0  0  0  0  0  0  0  0  0  0  0  0
    1.5983   -3.3875    0.0000 C   0  0  0  0  0  0  0  0  0  0  0  0
    2.1503   -4.0006    0.0000 C   0  0  0  0  0  0  0  0  0  0  0  0
    1.8953   -4.7852    0.0000 C   0  0  0  0  0  0  0  0  0  0  0  0
    1.0884   -4.9567    0.0000 C   0  0  0  0  0  0  0  0  0  0  0  0
    0.8334   -5.7414    0.0000 C   0  0  0  0  0  0  0  0  0  0  0  0
    1.3855   -6.3545    0.0000 C   0  0  0  0  0  0  0  0  0  0  0  0
    1.1305   -7.1391    0.0000 C   0  0  0  0  0  0  0  0  0  0  0  0
    0.3236   -7.3106    0.0000 C   0  0  0  0  0  0  0  0  0  0  0  0
   -0.2285   -6.6975    0.0000 C   0  0  0  0  0  0  0  0  0  0  0  0
    0.0265   -5.9129    0.0000 C   0  0  0  0  0  0  0  0  0  0  0  0
   -0.5256   -5.2998    0.0000 F   0  0  0  0  0  0  0  0  0  0  0  0
    0.5363   -4.3437    0.0000 C   0  0  0  0  0  0  0  0  0  0  0  0
    0.7913   -3.5590    0.0000 C   0  0  0  0  0  0  0  0  0  0  0  0
  1  2  2  0  0  0  0
  2  3  1  0  0  0  0
  3  4  4  0  0  0  0
  4  5  4  0  0  0  0
  5  6  4  0  0  0  0
  6  7  4  0  0  0  0
  7  8  4  0  0  0  0
  3  8  4  0  0  0  0
  8  9  1  0  0  0  0
  9 10  2  0  0  0  0
  9 11  1  0  0  0  0
 11 12  4  0  0  0  0
  2 12  1  0  0  0  0
 12 13  4  0  0  0  0
 13 14  4  0  0  0  0
 14 15  4  0  0  0  0
 11 15  4  0  0  0  0
 15 16  1  0  0  0  0
 16 17  4  0  0  0  0
 17 18  4  0  0  0  0
 18 19  4  0  0  0  0
 19 20  1  0  0  0  0
 20 21  4  0  0  0  0
 21 22  4  0  0  0  0
 22 23  4  0  0  0  0
 23 24  4  0  0  0  0
 24 25  4  0  0  0  0
 20 25  4  0  0  0  0
 25 26  1  0  0  0  0
 19 27  4  0  0  0  0
 27 28  4  0  0  0  0
 16 28  4  0  0  0  0
M  END
> <IC50(uM)>
0.0045

> <Outcome>
1.0

> <BindingDB ID>
51338188

> <BindingDB MonomerID>
50541662

> <BindingDB Ligand Name>
CHEMBL4638432

> <Curation/DataSource>
ChEMBL

> <Article DOI>
10.1021/acs.jmedchem.0c00512

> <PMID>
32496056

> <Patent Number>
?

> <Authors>
Zuo, Z; Liu, X; Qian, X; Zeng, T; Sang, N; Liu, H; Zhou, Y; Tao, L; Zhou, X; Su, N; Yu, Y; Chen, Q; Luo, Y; Zhao, Y

> <Link to Ligand in BindingDB>
http://www.bindingdb.org/bind/chemsearch/marvin/MolStructure.jsp?monomerid=50541662

> <Link to Ligand-Target Pair in BindingDB>
http://www.bindingdb.org/jsp/dbsearch/PrimarySearch_ki.jsp?energyterm=kJ/mole&tag=r21&monomerid=50541662&enzyme=Dihydroorotate+dehydrogenase&column=ki&startPg=0&Increment=50&submit=Search

> <PubChem CID>
156011410

> <PubChem SID>
442143225

$$$$

  Mrv2115 07222212352D          

 20 22  0  0  0  0            999 V2000
    4.0668    2.3479    0.0000 C   0  0  0  0  0  0  0  0  0  0  0  0
    3.3523    1.9354    0.0000 C   0  0  0  0  0  0  0  0  0  0  0  0
    3.3523    1.1104    0.0000 C   0  0  0  0  0  0  0  0  0  0  0  0
    2.6378    0.6979    0.0000 C   0  0  0  0  0  0  0  0  0  0  0  0
    2.6378   -0.1271    0.0000 O   0  0  0  0  0  0  0  0  0  0  0  0
    1.9233    1.1104    0.0000 N   0  0  0  0  0  0  0  0  0  0  0  0
    1.1387    0.8555    0.0000 N   0  0  0  0  0  0  0  0  0  0  0  0
    0.6538    1.5229    0.0000 C   0  0  0  0  0  0  0  0  0  0  0  0
   -0.1712    1.5229    0.0000 S   0  0  0  0  0  0  0  0  0  0  0  0
   -0.5837    0.8085    0.0000 C   0  0  0  0  0  0  0  0  0  0  0  0
   -1.4087    0.8085    0.0000 C   0  0  0  0  0  0  0  0  0  0  0  0
   -1.8212    0.0940    0.0000 C   0  0  0  0  0  0  0  0  0  0  0  0
   -2.6462    0.0940    0.0000 C   0  0  0  0  0  0  0  0  0  0  0  0
   -3.0587    0.8085    0.0000 C   0  0  0  0  0  0  0  0  0  0  0  0
   -2.6462    1.5229    0.0000 C   0  0  0  0  0  0  0  0  0  0  0  0
   -1.8212    1.5229    0.0000 C   0  0  0  0  0  0  0  0  0  0  0  0
   -1.4087    2.2374    0.0000 Cl  0  0  0  0  0  0  0  0  0  0  0  0
    1.1387    2.1904    0.0000 N   0  0  0  0  0  0  0  0  0  0  0  0
    1.9233    1.9354    0.0000 C   0  0  0  0  0  0  0  0  0  0  0  0
    2.6378    2.3479    0.0000 N   0  0  0  0  0  0  0  0  0  0  0  0
  1  2  1  0  0  0  0
  2  3  4  0  0  0  0
  3  4  4  0  0  0  0
  4  5  2  0  0  0  0
  4  6  4  0  0  0  0
  6  7  4  0  0  0  0
  7  8  4  0  0  0  0
  8  9  1  0  0  0  0
  9 10  1  0  0  0  0
 10 11  1  0  0  0  0
 11 12  4  0  0  0  0
 12 13  4  0  0  0  0
 13 14  4  0  0  0  0
 14 15  4  0  0  0  0
 15 16  4  0  0  0  0
 11 16  4  0  0  0  0
 16 17  1  0  0  0  0
  8 18  4  0  0  0  0
 18 19  4  0  0  0  0
  6 19  4  0  0  0  0
 19 20  4  0  0  0  0
  2 20  4  0  0  0  0
M  STY  1   1 DAT
M  SAL   1  1   7
M  SDT   1 MRV_IMPLICIT_H                                        
M  SDD   1     0.5304   -0.4125    DR    ALL  0       0  
M  SED   1 IMPL_H1
M  END
> <IC50(uM)>
12.0

> <Outcome>
0.0

> <BindingDB ID>
50970255

> <BindingDB MonomerID>
50397828

> <BindingDB Ligand Name>
CHEMBL1599552

> <Curation/DataSource>
ChEMBL

> <Article DOI>
10.1021/jm300157n

> <PMID>
22621375

> <Patent Number>
?

> <Authors>
Bedingfield, PT; Cowen, D; Acklam, P; Cunningham, F; Parsons, MR; McConkey, GA; Fishwick, CW; Johnson, AP

> <Link to Ligand in BindingDB>
http://www.bindingdb.org/bind/chemsearch/marvin/MolStructure.jsp?monomerid=50397828

> <Link to Ligand-Target Pair in BindingDB>
http://www.bindingdb.org/jsp/dbsearch/PrimarySearch_ki.jsp?energyterm=kJ/mole&tag=r21&monomerid=50397828&enzyme=Dihydroorotate+dehydrogenase&column=ki&startPg=0&Increment=50&submit=Search

> <PubChem CID>
16457486

> <PubChem SID>
163346852

$$$$

  Mrv2115 07222212352D          

 29 31  0  0  0  0            999 V2000
   -0.4331   -3.8908    0.0000 C   0  0  0  0  0  0  0  0  0  0  0  0
   -0.1781   -3.1062    0.0000 C   0  0  0  0  0  0  0  0  0  0  0  0
    0.6065   -3.3611    0.0000 C   0  0  0  0  0  0  0  0  0  0  0  0
   -0.9628   -2.8512    0.0000 C   0  0  0  0  0  0  0  0  0  0  0  0
    0.0768   -2.3215    0.0000 O   0  0  0  0  0  0  0  0  0  0  0  0
    0.8838   -2.1500    0.0000 C   0  0  0  0  0  0  0  0  0  0  0  0
    1.4358   -2.7631    0.0000 O   0  0  0  0  0  0  0  0  0  0  0  0
    1.1387   -1.3654    0.0000 N   0  0  0  0  0  0  0  0  0  0  0  0
    0.6538   -0.6979    0.0000 C   0  0  0  0  0  0  0  0  0  0  0  0
    1.1387   -0.0305    0.0000 C   0  0  0  0  0  0  0  0  0  0  0  0
    1.9233   -0.2854    0.0000 C   0  0  0  0  0  0  0  0  0  0  0  0
    2.6378    0.1271    0.0000 C   0  0  0  0  0  0  0  0  0  0  0  0
    3.3523   -0.2854    0.0000 C   0  0  0  0  0  0  0  0  0  0  0  0
    4.0668    0.1271    0.0000 C   0  0  0  0  0  0  0  0  0  0  0  0
    4.0668    0.9521    0.0000 C   0  0  0  0  0  0  0  0  0  0  0  0
    4.7812    1.3646    0.0000 C   0  0  0  0  0  0  0  0  0  0  0  0
    4.7812    2.1896    0.0000 C   0  0  0  0  0  0  0  0  0  0  0  0
    4.0668    2.6021    0.0000 C   0  0  0  0  0  0  0  0  0  0  0  0
    4.0668    3.4271    0.0000 O   0  0  0  0  0  0  0  0  0  0  0  0
    3.3523    2.1896    0.0000 O   0  0  0  0  0  0  0  0  0  0  0  0
    5.4957    2.6021    0.0000 N   0  0  0  0  0  0  0  0  0  0  0  0
    6.2102    2.1896    0.0000 C   0  0  0  0  0  0  0  0  0  0  0  0
    6.9246    2.6021    0.0000 O   0  0  0  0  0  0  0  0  0  0  0  0
    6.2102    1.3646    0.0000 N   0  0  0  0  0  0  0  0  0  0  0  0
    5.4957    0.9521    0.0000 C   0  0  0  0  0  0  0  0  0  0  0  0
    5.4957    0.1271    0.0000 O   0  0  0  0  0  0  0  0  0  0  0  0
    3.3523   -1.1104    0.0000 C   0  0  0  0  0  0  0  0  0  0  0  0
    2.6378   -1.5229    0.0000 C   0  0  0  0  0  0  0  0  0  0  0  0
    1.9233   -1.1104    0.0000 C   0  0  0  0  0  0  0  0  0  0  0  0
  1  2  1  0  0  0  0
  2  3  1  0  0  0  0
  2  4  1  0  0  0  0
  2  5  1  0  0  0  0
  5  6  1  0  0  0  0
  6  7  2  0  0  0  0
  6  8  1  0  0  0  0
  8  9  1  0  0  0  0
  9 10  1  0  0  0  0
 10 11  1  0  0  0  0
 11 12  4  0  0  0  0
 12 13  4  0  0  0  0
 13 14  1  0  0  0  0
 14 15  1  0  0  0  0
 15 16  1  0  0  0  0
 16 17  4  0  0  0  0
 17 18  1  0  0  0  0
 18 19  2  0  0  0  0
 18 20  1  0  0  0  0
 17 21  4  0  0  0  0
 21 22  4  0  0  0  0
 22 23  2  0  0  0  0
 22 24  4  0  0  0  0
 24 25  4  0  0  0  0
 16 25  4  0  0  0  0
 25 26  2  0  0  0  0
 13 27  4  0  0  0  0
 27 28  4  0  0  0  0
 28 29  4  0  0  0  0
 11 29  4  0  0  0  0
  8 29  1  0  0  0  0
M  STY  2   1 DAT   2 DAT
M  SAL   1  1  21
M  SDT   1 MRV_IMPLICIT_H                                        
M  SDD   1     0.6482   -0.4125    DR    ALL  0       0  
M  SED   1 IMPL_H1
M  SAL   2  1  24
M  SDT   2 MRV_IMPLICIT_H                                        
M  SDD   2     0.5304   -0.4125    DR    ALL  0       0  
M  SED   2 IMPL_H1
M  END
> <IC50(uM)>
0.389

> <Outcome>
1.0

> <BindingDB ID>
50555225

> <BindingDB MonomerID>
50211701

> <BindingDB Ligand Name>
CHEMBL3976207

> <Curation/DataSource>
ChEMBL

> <Article DOI>
10.1016/j.bmc.2017.01.009

> <PMID>
28118956

> <Patent Number>
?

> <Authors>
Inaoka, DK; Iida, M; Hashimoto, S; Tabuchi, T; Kuranaga, T; Balogun, EO; Honma, T; Tanaka, A; Harada, S; Nara, T; Kita, K; Inoue, M

> <Link to Ligand in BindingDB>
http://www.bindingdb.org/bind/chemsearch/marvin/MolStructure.jsp?monomerid=50211701

> <Link to Ligand-Target Pair in BindingDB>
http://www.bindingdb.org/jsp/dbsearch/PrimarySearch_ki.jsp?energyterm=kJ/mole&tag=r21&monomerid=50211701&enzyme=Dihydroorotate+dehydrogenase&column=ki&startPg=0&Increment=50&submit=Search

> <PubChem CID>
134151955

> <PubChem SID>
375983044

$$$$

  Mrv2115 07222212352D          

 20 21  0  0  0  0            999 V2000
    2.0367   -0.4741    0.0000 C   0  0  0  0  0  0  0  0  0  0  0  0
    2.0367   -1.2991    0.0000 C   0  0  0  0  0  0  0  0  0  0  0  0
    2.7041   -1.7840    0.0000 N   0  0  0  0  0  0  0  0  0  0  0  0
    2.4492   -2.5687    0.0000 N   0  0  0  0  0  0  0  0  0  0  0  0
    2.9341   -3.2361    0.0000 C   0  0  0  0  0  0  0  0  0  0  0  0
    1.6242   -2.5687    0.0000 C   0  0  0  0  0  0  0  0  0  0  0  0
    1.1393   -3.2361    0.0000 N   0  0  0  0  0  0  0  0  0  0  0  0
    0.3188   -3.1499    0.0000 C   0  0  0  0  0  0  0  0  0  0  0  0
   -0.1661   -3.8173    0.0000 C   0  0  0  0  0  0  0  0  0  0  0  0
   -0.9866   -3.7311    0.0000 C   0  0  0  0  0  0  0  0  0  0  0  0
   -1.3222   -2.9774    0.0000 C   0  0  0  0  0  0  0  0  0  0  0  0
   -2.1426   -2.8911    0.0000 C   0  0  0  0  0  0  0  0  0  0  0  0
   -2.9631   -2.8049    0.0000 F   0  0  0  0  0  0  0  0  0  0  0  0
   -2.0564   -2.0707    0.0000 F   0  0  0  0  0  0  0  0  0  0  0  0
   -2.2289   -3.7116    0.0000 F   0  0  0  0  0  0  0  0  0  0  0  0
   -0.8372   -2.3099    0.0000 C   0  0  0  0  0  0  0  0  0  0  0  0
   -0.0168   -2.3962    0.0000 C   0  0  0  0  0  0  0  0  0  0  0  0
    1.3693   -1.7840    0.0000 C   0  0  0  0  0  0  0  0  0  0  0  0
    0.5846   -1.5291    0.0000 C   0  0  0  0  0  0  0  0  0  0  0  0
   -0.2000   -1.2742    0.0000 N   0  0  0  0  0  0  0  0  0  0  0  0
  1  2  1  0  0  0  0
  2  3  4  0  0  0  0
  3  4  4  0  0  0  0
  4  5  1  0  0  0  0
  4  6  4  0  0  0  0
  6  7  1  0  0  0  0
  7  8  1  0  0  0  0
  8  9  4  0  0  0  0
  9 10  4  0  0  0  0
 10 11  4  0  0  0  0
 11 12  1  0  0  0  0
 12 13  1  0  0  0  0
 12 14  1  0  0  0  0
 12 15  1  0  0  0  0
 11 16  4  0  0  0  0
 16 17  4  0  0  0  0
  8 17  4  0  0  0  0
  6 18  4  0  0  0  0
  2 18  4  0  0  0  0
 18 19  1  0  0  0  0
 19 20  3  0  0  0  0
M  END
> <IC50(uM)>
50.0

> <Outcome>
0.0

> <BindingDB ID>
50786788

> <BindingDB MonomerID>
50066595

> <BindingDB Ligand Name>
1,3-Dimethyl-5-(4-trifluoromethyl-phenylamino)-1H-pyrazole-4-carbonitrile::CHEMBL118499

> <Curation/DataSource>
ChEMBL

> <Article DOI>
10.1021/jm981028c

> <PMID>
9719606

> <Patent Number>
?

> <Authors>
Papageorgiou, C; Albert, R; Floersheim, P; Lemaire, M; Bitch, F; Weber, HP; Andersen, E; Hungerford, V; Schreier, MH

> <Link to Ligand in BindingDB>
http://www.bindingdb.org/bind/chemsearch/marvin/MolStructure.jsp?monomerid=50066595

> <Link to Ligand-Target Pair in BindingDB>
http://www.bindingdb.org/jsp/dbsearch/PrimarySearch_ki.jsp?energyterm=kJ/mole&tag=r21&monomerid=50066595&enzyme=Dihydroorotate+dehydrogenase&column=ki&startPg=0&Increment=50&submit=Search

> <PubChem CID>
10492984

> <PubChem SID>
103961215

$$$$

  Mrv2115 07222212352D          

 36 40  0  0  0  0            999 V2000
    3.9934    2.4750    0.0000 O   0  0  0  0  0  0  0  0  0  0  0  0
    3.2789    2.0625    0.0000 C   0  0  0  0  0  0  0  0  0  0  0  0
    2.5645    2.4750    0.0000 O   0  0  0  0  0  0  0  0  0  0  0  0
    3.2789    1.2375    0.0000 C   0  0  0  0  0  0  0  0  0  0  0  0
    3.9934    0.8250    0.0000 C   0  0  0  0  0  0  0  0  0  0  0  0
    3.9934    0.0000    0.0000 C   0  0  0  0  0  0  0  0  0  0  0  0
    3.2789   -0.4125    0.0000 C   0  0  0  0  0  0  0  0  0  0  0  0
    2.5645    0.0000    0.0000 C   0  0  0  0  0  0  0  0  0  0  0  0
    1.7798   -0.2549    0.0000 N   0  0  0  0  0  0  0  0  0  0  0  0
    1.2949    0.4125    0.0000 C   0  0  0  0  0  0  0  0  0  0  0  0
    0.4699    0.4125    0.0000 C   0  0  0  0  0  0  0  0  0  0  0  0
    0.0574   -0.3020    0.0000 C   0  0  0  0  0  0  0  0  0  0  0  0
    0.4699   -1.0164    0.0000 F   0  0  0  0  0  0  0  0  0  0  0  0
   -0.7676   -0.3020    0.0000 C   0  0  0  0  0  0  0  0  0  0  0  0
   -1.1801   -1.0164    0.0000 F   0  0  0  0  0  0  0  0  0  0  0  0
   -1.1801    0.4125    0.0000 C   0  0  0  0  0  0  0  0  0  0  0  0
   -2.0051    0.4125    0.0000 C   0  0  0  0  0  0  0  0  0  0  0  0
   -2.4176   -0.3020    0.0000 C   0  0  0  0  0  0  0  0  0  0  0  0
   -3.2426   -0.3020    0.0000 C   0  0  0  0  0  0  0  0  0  0  0  0
   -3.6551    0.4125    0.0000 C   0  0  0  0  0  0  0  0  0  0  0  0
   -3.2426    1.1270    0.0000 C   0  0  0  0  0  0  0  0  0  0  0  0
   -2.4176    1.1270    0.0000 C   0  0  0  0  0  0  0  0  0  0  0  0
   -2.0051    1.8414    0.0000 O   0  0  0  0  0  0  0  0  0  0  0  0
   -2.4176    2.5559    0.0000 C   0  0  0  0  0  0  0  0  0  0  0  0
   -2.0051    3.2704    0.0000 C   0  0  0  0  0  0  0  0  0  0  0  0
   -2.4176    3.9849    0.0000 C   0  0  0  0  0  0  0  0  0  0  0  0
   -2.0051    4.6993    0.0000 C   0  0  0  0  0  0  0  0  0  0  0  0
   -1.1801    4.6993    0.0000 C   0  0  0  0  0  0  0  0  0  0  0  0
   -0.7676    3.9849    0.0000 C   0  0  0  0  0  0  0  0  0  0  0  0
   -1.1801    3.2704    0.0000 C   0  0  0  0  0  0  0  0  0  0  0  0
   -0.7676    1.1270    0.0000 C   0  0  0  0  0  0  0  0  0  0  0  0
   -1.1801    1.8414    0.0000 F   0  0  0  0  0  0  0  0  0  0  0  0
    0.0574    1.1270    0.0000 C   0  0  0  0  0  0  0  0  0  0  0  0
    0.4699    1.8414    0.0000 F   0  0  0  0  0  0  0  0  0  0  0  0
    1.7798    1.0799    0.0000 N   0  0  0  0  0  0  0  0  0  0  0  0
    2.5645    0.8250    0.0000 C   0  0  0  0  0  0  0  0  0  0  0  0
  1  2  2  0  0  0  0
  2  3  1  0  0  0  0
  2  4  1  0  0  0  0
  4  5  4  0  0  0  0
  5  6  4  0  0  0  0
  6  7  4  0  0  0  0
  7  8  4  0  0  0  0
  8  9  4  0  0  0  0
  9 10  4  0  0  0  0
 10 11  1  0  0  0  0
 11 12  4  0  0  0  0
 12 13  1  0  0  0  0
 12 14  4  0  0  0  0
 14 15  1  0  0  0  0
 14 16  4  0  0  0  0
 16 17  1  0  0  0  0
 17 18  4  0  0  0  0
 18 19  4  0  0  0  0
 19 20  4  0  0  0  0
 20 21  4  0  0  0  0
 21 22  4  0  0  0  0
 17 22  4  0  0  0  0
 22 23  1  0  0  0  0
 23 24  1  0  0  0  0
 24 25  1  0  0  0  0
 25 26  4  0  0  0  0
 26 27  4  0  0  0  0
 27 28  4  0  0  0  0
 28 29  4  0  0  0  0
 29 30  4  0  0  0  0
 25 30  4  0  0  0  0
 16 31  4  0  0  0  0
 31 32  1  0  0  0  0
 31 33  4  0  0  0  0
 11 33  4  0  0  0  0
 33 34  1  0  0  0  0
 10 35  4  0  0  0  0
 35 36  4  0  0  0  0
  4 36  4  0  0  0  0
  8 36  4  0  0  0  0
M  STY  1   1 DAT
M  SAL   1  1  35
M  SDT   1 MRV_IMPLICIT_H                                        
M  SDD   1     0.5304   -0.4125    DR    ALL  0       0  
M  SED   1 IMPL_H1
M  END
> <IC50(uM)>
0.707

> <Outcome>
1.0

> <BindingDB ID>
297803

> <BindingDB MonomerID>
155459

> <BindingDB Ligand Name>
US9006454, I101

> <Curation/DataSource>
US Patent

> <Article DOI>
?

> <PMID>
?

> <Patent Number>
US9006454

> <Authors>
Thunuguntla, SS; Subramanya, H; Kunnam, SR; Sanivaru Vijay, SR; Bingi, C; Kusanur, R; Schwarz, M; Arlt, M

> <Link to Ligand in BindingDB>
http://www.bindingdb.org/bind/chemsearch/marvin/MolStructure.jsp?monomerid=155459

> <Link to Ligand-Target Pair in BindingDB>
http://www.bindingdb.org/jsp/dbsearch/PrimarySearch_ki.jsp?energyterm=kJ/mole&tag=r21&monomerid=155459&enzyme=Dihydroorotate+dehydrogenase&column=ki&startPg=0&Increment=50&submit=Search

> <PubChem CID>
88582993

> <PubChem SID>
253658396

$$$$

  Mrv2115 07222212352D          

 28 30  0  0  0  0            999 V2000
   -0.7145   12.5411    0.0000 C   0  0  0  0  0  0  0  0  0  0  0  0
   -0.7145   11.7161    0.0000 C   0  0  0  0  0  0  0  0  0  0  0  0
   -1.5395   11.7161    0.0000 C   0  0  0  0  0  0  0  0  0  0  0  0
    0.1105   11.7161    0.0000 C   0  0  0  0  0  0  0  0  0  0  0  0
   -0.7145   10.8911    0.0000 C   0  0  0  0  0  0  0  0  0  0  0  0
   -0.0000   10.4786    0.0000 C   0  0  0  0  0  0  0  0  0  0  0  0
   -0.0000    9.6536    0.0000 C   0  0  0  0  0  0  0  0  0  0  0  0
   -0.7145    9.2411    0.0000 C   0  0  0  0  0  0  0  0  0  0  0  0
   -0.7145    8.4161    0.0000 C   0  0  0  0  0  0  0  0  0  0  0  0
   -0.0000    8.0036    0.0000 C   0  0  0  0  0  0  0  0  0  0  0  0
   -0.0000    7.1786    0.0000 C   0  0  0  0  0  0  0  0  0  0  0  0
   -0.7145    6.7661    0.0000 C   0  0  0  0  0  0  0  0  0  0  0  0
   -0.7145    5.9411    0.0000 N   0  0  0  0  0  0  0  0  0  0  0  0
   -0.0000    5.5286    0.0000 C   0  0  0  0  0  0  0  0  0  0  0  0
    0.7145    5.9411    0.0000 O   0  0  0  0  0  0  0  0  0  0  0  0
   -0.0000    4.7036    0.0000 C   0  0  0  0  0  0  0  0  0  0  0  0
    0.6674    4.2187    0.0000 C   0  0  0  0  0  0  0  0  0  0  0  0
    1.4521    4.4736    0.0000 C   0  0  0  0  0  0  0  0  0  0  0  0
    1.6236    5.2806    0.0000 O   0  0  0  0  0  0  0  0  0  0  0  0
    2.0652    3.9216    0.0000 O   0  0  0  0  0  0  0  0  0  0  0  0
    0.4125    3.4340    0.0000 C   0  0  0  0  0  0  0  0  0  0  0  0
   -0.4125    3.4340    0.0000 C   0  0  0  0  0  0  0  0  0  0  0  0
   -0.6674    4.2187    0.0000 C   0  0  0  0  0  0  0  0  0  0  0  0
   -1.4289    7.1786    0.0000 C   0  0  0  0  0  0  0  0  0  0  0  0
   -1.4289    8.0036    0.0000 C   0  0  0  0  0  0  0  0  0  0  0  0
   -2.1434    8.4161    0.0000 Cl  0  0  0  0  0  0  0  0  0  0  0  0
   -1.4289    9.6536    0.0000 C   0  0  0  0  0  0  0  0  0  0  0  0
   -1.4289   10.4786    0.0000 C   0  0  0  0  0  0  0  0  0  0  0  0
  1  2  1  0  0  0  0
  2  3  1  0  0  0  0
  2  4  1  0  0  0  0
  2  5  1  0  0  0  0
  5  6  4  0  0  0  0
  6  7  4  0  0  0  0
  7  8  4  0  0  0  0
  8  9  1  0  0  0  0
  9 10  4  0  0  0  0
 10 11  4  0  0  0  0
 11 12  4  0  0  0  0
 12 13  1  0  0  0  0
 13 14  1  0  0  0  0
 14 15  2  0  0  0  0
 14 16  1  0  0  0  0
 16 17  2  0  0  0  0
 17 18  1  0  0  0  0
 18 19  2  0  0  0  0
 18 20  1  0  0  0  0
 17 21  1  0  0  0  0
 21 22  1  0  0  0  0
 22 23  1  0  0  0  0
 16 23  1  0  0  0  0
 12 24  4  0  0  0  0
 24 25  4  0  0  0  0
  9 25  4  0  0  0  0
 25 26  1  0  0  0  0
  8 27  4  0  0  0  0
 27 28  4  0  0  0  0
  5 28  4  0  0  0  0
M  END
> <IC50(uM)>
0.08

> <Outcome>
1.0

> <BindingDB ID>
50251713

> <BindingDB MonomerID>
50137296

> <BindingDB Ligand Name>
2-(4'-tert-Butyl-2-chloro-biphenyl-4-ylcarbamoyl)-cyclopent-1-enecarboxylic acid::CHEMBL157164

> <Curation/DataSource>
ChEMBL

> <Article DOI>
10.1016/j.bmcl.2003.10.021

> <PMID>
14684297

> <Patent Number>
?

> <Authors>
Leban, J; Saeb, W; Garcia, G; Baumgartner, R; Kramer, B

> <Link to Ligand in BindingDB>
http://www.bindingdb.org/bind/chemsearch/marvin/MolStructure.jsp?monomerid=50137296

> <Link to Ligand-Target Pair in BindingDB>
http://www.bindingdb.org/jsp/dbsearch/PrimarySearch_ki.jsp?energyterm=kJ/mole&tag=r21&monomerid=50137296&enzyme=Dihydroorotate+dehydrogenase&column=ki&startPg=0&Increment=50&submit=Search

> <PubChem CID>
44369870

> <PubChem SID>
104027462

$$$$

  Mrv2115 07222212352D          

 35 37  0  0  0  0            999 V2000
   -1.4289    8.0036    0.0000 C   0  0  0  0  0  0  0  0  0  0  0  0
   -0.7145    8.4161    0.0000 C   0  0  0  0  0  0  0  0  0  0  0  0
   -0.7145    9.2411    0.0000 C   0  0  0  0  0  0  0  0  0  0  0  0
   -0.0000    9.6536    0.0000 C   0  0  0  0  0  0  0  0  0  0  0  0
    0.7145    9.2411    0.0000 C   0  0  0  0  0  0  0  0  0  0  0  0
    0.7145    8.4161    0.0000 C   0  0  0  0  0  0  0  0  0  0  0  0
    1.4289    8.0036    0.0000 F   0  0  0  0  0  0  0  0  0  0  0  0
   -0.0000    8.0036    0.0000 C   0  0  0  0  0  0  0  0  0  0  0  0
   -0.0000    7.1786    0.0000 N   0  0  0  0  0  0  0  0  0  0  0  0
    0.7145    6.7661    0.0000 C   0  0  0  0  0  0  0  0  0  0  0  0
    1.4289    7.1786    0.0000 O   0  0  0  0  0  0  0  0  0  0  0  0
    0.7145    5.9411    0.0000 C   0  0  0  0  0  0  0  0  0  0  0  0
    1.4289    5.5286    0.0000 C   0  0  0  0  0  0  0  0  0  0  0  0
    1.4289    4.7036    0.0000 C   0  0  0  0  0  0  0  0  0  0  0  0
    2.1434    4.2911    0.0000 F   0  0  0  0  0  0  0  0  0  0  0  0
    0.7145    4.2911    0.0000 C   0  0  0  0  0  0  0  0  0  0  0  0
    0.7145    3.4661    0.0000 N   0  0  0  0  0  0  0  0  0  0  0  0
    0.0470    2.9812    0.0000 N   0  0  0  0  0  0  0  0  0  0  0  0
    0.3020    2.1965    0.0000 C   0  0  0  0  0  0  0  0  0  0  0  0
   -0.1830    1.5291    0.0000 C   0  0  0  0  0  0  0  0  0  0  0  0
    0.1526    0.7754    0.0000 C   0  0  0  0  0  0  0  0  0  0  0  0
   -1.0034    1.6153    0.0000 O   0  0  0  0  0  0  0  0  0  0  0  0
    1.1270    2.1965    0.0000 N   0  0  0  0  0  0  0  0  0  0  0  0
    1.6119    1.5291    0.0000 C   0  0  0  0  0  0  0  0  0  0  0  0
    1.3819    2.9812    0.0000 C   0  0  0  0  0  0  0  0  0  0  0  0
    2.1665    3.2361    0.0000 O   0  0  0  0  0  0  0  0  0  0  0  0
    0.0000    4.7036    0.0000 C   0  0  0  0  0  0  0  0  0  0  0  0
   -0.0000    5.5286    0.0000 C   0  0  0  0  0  0  0  0  0  0  0  0
   -0.7145    5.9411    0.0000 O   0  0  0  0  0  0  0  0  0  0  0  0
   -1.4289    5.5286    0.0000 C   0  0  0  0  0  0  0  0  0  0  0  0
   -1.4289    4.7036    0.0000 C   0  0  0  0  0  0  0  0  0  0  0  0
   -2.1434    5.9411    0.0000 C   0  0  0  0  0  0  0  0  0  0  0  0
   -1.7309    6.6555    0.0000 F   0  0  0  0  0  0  0  0  0  0  0  0
   -2.5559    5.2266    0.0000 F   0  0  0  0  0  0  0  0  0  0  0  0
   -2.8579    6.3536    0.0000 F   0  0  0  0  0  0  0  0  0  0  0  0
  1  2  1  0  0  0  0
  2  3  4  0  0  0  0
  3  4  4  0  0  0  0
  4  5  4  0  0  0  0
  5  6  4  0  0  0  0
  6  7  1  0  0  0  0
  6  8  4  0  0  0  0
  2  8  4  0  0  0  0
  8  9  1  0  0  0  0
  9 10  1  0  0  0  0
 10 11  2  0  0  0  0
 10 12  1  0  0  0  0
 12 13  4  0  0  0  0
 13 14  4  0  0  0  0
 14 15  1  0  0  0  0
 14 16  4  0  0  0  0
 16 17  1  0  0  0  0
 17 18  4  0  0  0  0
 18 19  4  0  0  0  0
 19 20  1  0  0  0  0
 20 21  1  0  0  0  0
 20 22  1  0  0  0  0
 19 23  4  0  0  0  0
 23 24  1  0  0  0  0
 23 25  4  0  0  0  0
 17 25  4  0  0  0  0
 25 26  2  0  0  0  0
 16 27  4  0  0  0  0
 27 28  4  0  0  0  0
 12 28  4  0  0  0  0
 28 29  1  0  0  0  0
 29 30  1  0  0  0  0
 30 31  1  0  0  0  0
 30 32  1  0  0  0  0
 32 33  1  0  0  0  0
 32 34  1  0  0  0  0
 32 35  1  0  0  0  0
M  END
> <IC50(uM)>
0.02

> <Outcome>
1.0

> <BindingDB ID>
972588; 1098742

> <BindingDB MonomerID>
470464

> <BindingDB Ligand Name>
5-fluoro-N-(2-fluoro-6-methylphenyl)-4-{3-[(1S)-1-hydroxyethyl]-4-methyl-5-oxo-4,5-dihydro-1H-1,2,4-triazol-1-yl}-2-{[(2S)-1,1,1-trifluoropropan-2-yl]oxy}benzamide::US10815215, Example 130; 5-fluoro-N-(2-fluoro-6-methylphenyl)-4-{3-[(1S)-1-hydroxyethyl]-4-methyl-5-oxo-4,5-dihydro-1H-1,2,4-triazol-1-yl}-2-{[(2S)-1,1,1-trifluoropropan-2-yl]oxy}benzamide::US10815215, Example 130::US11130745, Example 130

> <Curation/DataSource>
US Patent

> <Article DOI>
?

> <PMID>
?

> <Patent Number>
US10815215; US11130745

> <Authors>
Gradl, SN; Nguyen, D; Eis, K; Gunther, J; Stellfeld, T; Janzer, A; Christian, S; Muller, T; Sheikh, SE; Zhou, HJ; Zhao, C; Sykes, DB; Ferrara, SJ; Liu, K; Krober, M; Merz, C; Niehues, M; Schafer, M; Zimmermann, K; Nising, CF; Gradl, SN; Nguyen, D; Eis, K; Gunther, J; Stellfeld, T; Janzer, A; Christian, S; Muller, T; Sheikh, SE; Sykes, DB; Ferrara, SJ; Krober, M; Merz, C; Niehues, M; Schafer, M; Zimmermann, K; Nising, CF

> <Link to Ligand in BindingDB>
http://www.bindingdb.org/bind/chemsearch/marvin/MolStructure.jsp?monomerid=470464

> <Link to Ligand-Target Pair in BindingDB>
http://www.bindingdb.org/jsp/dbsearch/PrimarySearch_ki.jsp?energyterm=kJ/mole&tag=r21&monomerid=470464&enzyme=Dihydroorotate+dehydrogenase&column=ki&startPg=0&Increment=50&submit=Search

> <PubChem CID>
134470191

> <PubChem SID>
441609641

$$$$

  Mrv2115 07222212352D          

 32 35  0  0  0  0            999 V2000
    2.8579   -2.4750    0.0000 O   0  0  0  0  0  0  0  0  0  0  0  0
    2.1434   -2.8875    0.0000 C   0  0  0  0  0  0  0  0  0  0  0  0
    1.4289   -2.4750    0.0000 N   0  0  0  0  0  0  0  0  0  0  0  0
    1.4289   -1.6500    0.0000 C   0  0  0  0  0  0  0  0  0  0  0  0
    0.7145   -1.2375    0.0000 C   0  0  0  0  0  0  0  0  0  0  0  0
    0.7145   -0.4125    0.0000 C   0  0  0  0  0  0  0  0  0  0  0  0
    1.4289    0.0000    0.0000 C   0  0  0  0  0  0  0  0  0  0  0  0
    2.1434   -0.4125    0.0000 C   0  0  0  0  0  0  0  0  0  0  0  0
    2.8579    0.0000    0.0000 C   0  0  0  0  0  0  0  0  0  0  0  0
    3.5724   -0.4125    0.0000 C   0  0  0  0  0  0  0  0  0  0  0  0
    3.5724   -1.2375    0.0000 C   0  0  0  0  0  0  0  0  0  0  0  0
    4.2868   -1.6500    0.0000 C   0  0  0  0  0  0  0  0  0  0  0  0
    5.0013   -1.2375    0.0000 C   0  0  0  0  0  0  0  0  0  0  0  0
    5.7158   -1.6500    0.0000 C   0  0  0  0  0  0  0  0  0  0  0  0
    6.4302   -1.2375    0.0000 C   0  0  0  0  0  0  0  0  0  0  0  0
    6.4302   -0.4125    0.0000 C   0  0  0  0  0  0  0  0  0  0  0  0
    7.1447   -0.0000    0.0000 O   0  0  0  0  0  0  0  0  0  0  0  0
    5.7158   -0.0000    0.0000 O   0  0  0  0  0  0  0  0  0  0  0  0
    7.1447   -1.6500    0.0000 N   0  0  0  0  0  0  0  0  0  0  0  0
    7.1447   -2.4750    0.0000 C   0  0  0  0  0  0  0  0  0  0  0  0
    7.8592   -2.8875    0.0000 O   0  0  0  0  0  0  0  0  0  0  0  0
    6.4302   -2.8875    0.0000 N   0  0  0  0  0  0  0  0  0  0  0  0
    5.7158   -2.4750    0.0000 C   0  0  0  0  0  0  0  0  0  0  0  0
    5.0013   -2.8875    0.0000 O   0  0  0  0  0  0  0  0  0  0  0  0
    2.8579   -1.6500    0.0000 C   0  0  0  0  0  0  0  0  0  0  0  0
    2.1434   -1.2375    0.0000 C   0  0  0  0  0  0  0  0  0  0  0  0
    2.1434   -3.7125    0.0000 C   0  0  0  0  0  0  0  0  0  0  0  0
    2.8579   -4.1250    0.0000 C   0  0  0  0  0  0  0  0  0  0  0  0
    2.8579   -4.9500    0.0000 C   0  0  0  0  0  0  0  0  0  0  0  0
    2.1434   -5.3625    0.0000 C   0  0  0  0  0  0  0  0  0  0  0  0
    1.4289   -4.9500    0.0000 C   0  0  0  0  0  0  0  0  0  0  0  0
    1.4289   -4.1250    0.0000 C   0  0  0  0  0  0  0  0  0  0  0  0
  1  2  2  0  0  0  0
  2  3  1  0  0  0  0
  3  4  1  0  0  0  0
  4  5  4  0  0  0  0
  5  6  4  0  0  0  0
  6  7  4  0  0  0  0
  7  8  4  0  0  0  0
  8  9  4  0  0  0  0
  9 10  4  0  0  0  0
 10 11  4  0  0  0  0
 11 12  1  0  0  0  0
 12 13  1  0  0  0  0
 13 14  1  0  0  0  0
 14 15  4  0  0  0  0
 15 16  1  0  0  0  0
 16 17  2  0  0  0  0
 16 18  1  0  0  0  0
 15 19  4  0  0  0  0
 19 20  4  0  0  0  0
 20 21  2  0  0  0  0
 20 22  4  0  0  0  0
 22 23  4  0  0  0  0
 14 23  4  0  0  0  0
 23 24  2  0  0  0  0
 11 25  4  0  0  0  0
 25 26  4  0  0  0  0
  4 26  4  0  0  0  0
  8 26  4  0  0  0  0
  2 27  1  0  0  0  0
 27 28  4  0  0  0  0
 28 29  4  0  0  0  0
 29 30  4  0  0  0  0
 30 31  4  0  0  0  0
 31 32  4  0  0  0  0
 27 32  4  0  0  0  0
M  STY  2   1 DAT   2 DAT
M  SAL   1  1  19
M  SDT   1 MRV_IMPLICIT_H                                        
M  SDD   1     0.5304   -0.4125    DR    ALL  0       0  
M  SED   1 IMPL_H1
M  SAL   2  1  22
M  SDT   2 MRV_IMPLICIT_H                                        
M  SDD   2     0.6482   -0.4125    DR    ALL  0       0  
M  SED   2 IMPL_H1
M  END
> <IC50(uM)>
0.524

> <Outcome>
1.0

> <BindingDB ID>
50555290

> <BindingDB MonomerID>
50211720

> <BindingDB Ligand Name>
CHEMBL3942246

> <Curation/DataSource>
ChEMBL

> <Article DOI>
10.1016/j.bmc.2017.01.009

> <PMID>
28118956

> <Patent Number>
?

> <Authors>
Inaoka, DK; Iida, M; Hashimoto, S; Tabuchi, T; Kuranaga, T; Balogun, EO; Honma, T; Tanaka, A; Harada, S; Nara, T; Kita, K; Inoue, M

> <Link to Ligand in BindingDB>
http://www.bindingdb.org/bind/chemsearch/marvin/MolStructure.jsp?monomerid=50211720

> <Link to Ligand-Target Pair in BindingDB>
http://www.bindingdb.org/jsp/dbsearch/PrimarySearch_ki.jsp?energyterm=kJ/mole&tag=r21&monomerid=50211720&enzyme=Dihydroorotate+dehydrogenase&column=ki&startPg=0&Increment=50&submit=Search

> <PubChem CID>
134146300

> <PubChem SID>
375983063

$$$$

  Mrv2115 07222212352D          

 38 41  0  0  0  0            999 V2000
   -3.1034    2.1599    0.0000 C   0  0  0  0  0  0  0  0  0  0  0  0
   -2.6909    1.4455    0.0000 C   0  0  0  0  0  0  0  0  0  0  0  0
   -3.1034    0.7310    0.0000 O   0  0  0  0  0  0  0  0  0  0  0  0
   -2.6909    0.0165    0.0000 C   0  0  0  0  0  0  0  0  0  0  0  0
   -1.8659    0.0165    0.0000 C   0  0  0  0  0  0  0  0  0  0  0  0
   -1.4534   -0.6979    0.0000 C   0  0  0  0  0  0  0  0  0  0  0  0
   -0.6284   -0.6979    0.0000 N   0  0  0  0  0  0  0  0  0  0  0  0
   -0.1435   -1.3654    0.0000 N   0  0  0  0  0  0  0  0  0  0  0  0
    0.6411   -1.1104    0.0000 C   0  0  0  0  0  0  0  0  0  0  0  0
    0.6411   -0.2854    0.0000 N   0  0  0  0  0  0  0  0  0  0  0  0
   -0.1435   -0.0305    0.0000 C   0  0  0  0  0  0  0  0  0  0  0  0
   -0.3984    0.7541    0.0000 O   0  0  0  0  0  0  0  0  0  0  0  0
    1.3556    0.1271    0.0000 C   0  0  0  0  0  0  0  0  0  0  0  0
    2.0701   -0.2854    0.0000 C   0  0  0  0  0  0  0  0  0  0  0  0
    2.0701   -1.1104    0.0000 C   0  0  0  0  0  0  0  0  0  0  0  0
    1.3556   -1.5229    0.0000 C   0  0  0  0  0  0  0  0  0  0  0  0
   -1.8659   -1.4124    0.0000 C   0  0  0  0  0  0  0  0  0  0  0  0
   -1.4534   -2.1269    0.0000 F   0  0  0  0  0  0  0  0  0  0  0  0
   -2.6909   -1.4124    0.0000 C   0  0  0  0  0  0  0  0  0  0  0  0
   -3.1034   -0.6979    0.0000 C   0  0  0  0  0  0  0  0  0  0  0  0
   -3.9284   -0.6979    0.0000 C   0  0  0  0  0  0  0  0  0  0  0  0
   -4.3409    0.0165    0.0000 O   0  0  0  0  0  0  0  0  0  0  0  0
   -4.3409   -1.4124    0.0000 N   0  0  0  0  0  0  0  0  0  0  0  0
   -5.1659   -1.4124    0.0000 C   0  0  0  0  0  0  0  0  0  0  0  0
   -5.7493   -1.9958    0.0000 C   0  0  0  0  0  0  0  0  0  0  0  0
   -6.3327   -1.4124    0.0000 N   0  0  0  0  0  0  0  0  0  0  0  0
   -7.1577   -1.4124    0.0000 C   0  0  0  0  0  0  0  0  0  0  0  0
   -7.5702   -2.1269    0.0000 O   0  0  0  0  0  0  0  0  0  0  0  0
   -7.5702   -0.6979    0.0000 O   0  0  0  0  0  0  0  0  0  0  0  0
   -8.3952   -0.6979    0.0000 C   0  0  0  0  0  0  0  0  0  0  0  0
   -9.2202   -0.6979    0.0000 C   0  0  0  0  0  0  0  0  0  0  0  0
   -8.3952    0.1271    0.0000 C   0  0  0  0  0  0  0  0  0  0  0  0
   -8.3952   -1.5229    0.0000 C   0  0  0  0  0  0  0  0  0  0  0  0
   -5.7493   -0.8291    0.0000 C   0  0  0  0  0  0  0  0  0  0  0  0
   -1.8659    1.4455    0.0000 C   0  0  0  0  0  0  0  0  0  0  0  0
   -1.8659    0.6205    0.0000 F   0  0  0  0  0  0  0  0  0  0  0  0
   -1.8659    2.2705    0.0000 F   0  0  0  0  0  0  0  0  0  0  0  0
   -1.0409    1.4455    0.0000 F   0  0  0  0  0  0  0  0  0  0  0  0
  1  2  1  0  0  0  0
  2  3  1  0  0  0  0
  3  4  1  0  0  0  0
  4  5  4  0  0  0  0
  5  6  4  0  0  0  0
  6  7  1  0  0  0  0
  7  8  4  0  0  0  0
  8  9  4  0  0  0  0
  9 10  4  0  0  0  0
 10 11  4  0  0  0  0
  7 11  4  0  0  0  0
 11 12  2  0  0  0  0
 10 13  1  0  0  0  0
 13 14  1  0  0  0  0
 14 15  1  0  0  0  0
 15 16  1  0  0  0  0
  9 16  1  0  0  0  0
  6 17  4  0  0  0  0
 17 18  1  0  0  0  0
 17 19  4  0  0  0  0
 19 20  4  0  0  0  0
  4 20  4  0  0  0  0
 20 21  1  0  0  0  0
 21 22  2  0  0  0  0
 21 23  1  0  0  0  0
 23 24  1  0  0  0  0
 24 25  1  0  0  0  0
 25 26  1  0  0  0  0
 26 27  1  0  0  0  0
 27 28  2  0  0  0  0
 27 29  1  0  0  0  0
 29 30  1  0  0  0  0
 30 31  1  0  0  0  0
 30 32  1  0  0  0  0
 30 33  1  0  0  0  0
 26 34  1  0  0  0  0
 24 34  1  0  0  0  0
  2 35  1  0  0  0  0
 35 36  1  0  0  0  0
 35 37  1  0  0  0  0
 35 38  1  0  0  0  0
M  END
> <IC50(uM)>
1.4

> <Outcome>
0.0

> <BindingDB ID>
1020432

> <BindingDB MonomerID>
490383

> <BindingDB Ligand Name>
US10968216, Example 51::tert-butyl 3-{[5-fluoro-4-(3-oxo-5,6,7,8-tetrahydro[1,2,4]triazolo[4,3-a]pyridin-2(3H)-yl)-2-{[(2S)-1,1,1-trifluoropropan-2-yl]oxy}benzoyl]amino}azetidine-1-carboxylate

> <Curation/DataSource>
US Patent

> <Article DOI>
?

> <PMID>
?

> <Patent Number>
US10968216

> <Authors>
Gradl, SN; Nguyen, D; Eis, K; Gunther, J; Stellfeld, T; Janzer, A; Christian, S; Mueller, T; Sheikh, SE; Zhou, HJ; Zhao, C; Sykes, DB; Ferrara, SJ; Liu, K; Herbert, SA; Merz, C; Niehues, M; Nising, CF; Schafer, M; Zimmermann, K; Knablein, J; Thede, K; Faupel, T

> <Link to Ligand in BindingDB>
http://www.bindingdb.org/bind/chemsearch/marvin/MolStructure.jsp?monomerid=490383

> <Link to Ligand-Target Pair in BindingDB>
http://www.bindingdb.org/jsp/dbsearch/PrimarySearch_ki.jsp?energyterm=kJ/mole&tag=r21&monomerid=490383&enzyme=Dihydroorotate+dehydrogenase&column=ki&startPg=0&Increment=50&submit=Search

> <PubChem CID>
134474086

> <PubChem SID>
447117110

$$$$

  Mrv2115 07222212352D          

 26 29  0  0  0  0            999 V2000
    0.0000   -1.6500    0.0000 C   0  0  0  0  0  0  0  0  0  0  0  0
    0.7145   -1.2375    0.0000 C   0  0  0  0  0  0  0  0  0  0  0  0
    0.7145   -0.4125    0.0000 C   0  0  0  0  0  0  0  0  0  0  0  0
    0.0000    0.0000    0.0000 C   0  0  0  0  0  0  0  0  0  0  0  0
   -0.7145   -0.4125    0.0000 C   0  0  0  0  0  0  0  0  0  0  0  0
   -1.4289    0.0000    0.0000 C   0  0  0  0  0  0  0  0  0  0  0  0
   -1.4289    0.8250    0.0000 C   0  0  0  0  0  0  0  0  0  0  0  0
   -2.1434    1.2375    0.0000 C   0  0  0  0  0  0  0  0  0  0  0  0
   -2.8579    0.8250    0.0000 C   0  0  0  0  0  0  0  0  0  0  0  0
   -3.5724    1.2375    0.0000 C   0  0  0  0  0  0  0  0  0  0  0  0
   -3.5724    2.0625    0.0000 C   0  0  0  0  0  0  0  0  0  0  0  0
   -2.8579    2.4750    0.0000 C   0  0  0  0  0  0  0  0  0  0  0  0
   -2.1434    2.0625    0.0000 C   0  0  0  0  0  0  0  0  0  0  0  0
   -0.7145    1.2375    0.0000 C   0  0  0  0  0  0  0  0  0  0  0  0
    0.0000    0.8250    0.0000 C   0  0  0  0  0  0  0  0  0  0  0  0
    1.4289    0.0000    0.0000 N   0  0  0  0  0  0  0  0  0  0  0  0
    2.1434   -0.4125    0.0000 C   0  0  0  0  0  0  0  0  0  0  0  0
    2.8579    0.0000    0.0000 C   0  0  0  0  0  0  0  0  0  0  0  0
    3.5724   -0.4125    0.0000 C   0  0  0  0  0  0  0  0  0  0  0  0
    3.5724   -1.2375    0.0000 C   0  0  0  0  0  0  0  0  0  0  0  0
    2.8579   -1.6500    0.0000 C   0  0  0  0  0  0  0  0  0  0  0  0
    2.1434   -1.2375    0.0000 C   0  0  0  0  0  0  0  0  0  0  0  0
    1.4289   -1.6500    0.0000 C   0  0  0  0  0  0  0  0  0  0  0  0
    1.4289   -2.4750    0.0000 C   0  0  0  0  0  0  0  0  0  0  0  0
    0.7145   -2.8875    0.0000 O   0  0  0  0  0  0  0  0  0  0  0  0
    2.1434   -2.8875    0.0000 O   0  0  0  0  0  0  0  0  0  0  0  0
  1  2  1  0  0  0  0
  2  3  4  0  0  0  0
  3  4  1  0  0  0  0
  4  5  4  0  0  0  0
  5  6  4  0  0  0  0
  6  7  4  0  0  0  0
  7  8  1  0  0  0  0
  8  9  4  0  0  0  0
  9 10  4  0  0  0  0
 10 11  4  0  0  0  0
 11 12  4  0  0  0  0
 12 13  4  0  0  0  0
  8 13  4  0  0  0  0
  7 14  4  0  0  0  0
 14 15  4  0  0  0  0
  4 15  4  0  0  0  0
  3 16  4  0  0  0  0
 16 17  4  0  0  0  0
 17 18  4  0  0  0  0
 18 19  4  0  0  0  0
 19 20  4  0  0  0  0
 20 21  4  0  0  0  0
 21 22  4  0  0  0  0
 17 22  4  0  0  0  0
 22 23  4  0  0  0  0
  2 23  4  0  0  0  0
 23 24  1  0  0  0  0
 24 25  2  0  0  0  0
 24 26  1  0  0  0  0
M  END
> <IC50(uM)>
0.075

> <Outcome>
1.0

> <BindingDB ID>
51126188

> <BindingDB MonomerID>
50284844

> <BindingDB Ligand Name>
2-Biphenyl-4-yl-3-methyl-quinoline-4-carboxylic acid::CHEMBL39448

> <Curation/DataSource>
ChEMBL

> <Article DOI>
10.1021/acs.jmedchem.7b01862

> <PMID>
29727569

> <Patent Number>
?

> <Authors>
Madak, JT; Cuthbertson, CR; Miyata, Y; Tamura, S; Petrunak, EM; Stuckey, JA; Han, Y; He, M; Sun, D; Showalter, HD; Neamati, N

> <Link to Ligand in BindingDB>
http://www.bindingdb.org/bind/chemsearch/marvin/MolStructure.jsp?monomerid=50284844

> <Link to Ligand-Target Pair in BindingDB>
http://www.bindingdb.org/jsp/dbsearch/PrimarySearch_ki.jsp?energyterm=kJ/mole&tag=r21&monomerid=50284844&enzyme=Dihydroorotate+dehydrogenase&column=ki&startPg=0&Increment=50&submit=Search

> <PubChem CID>
44285965

> <PubChem SID>
104126415

$$$$

  Mrv2115 07222212352D          

 37 39  0  0  0  0            999 V2000
    2.1434   -3.7125    0.0000 C   0  0  0  0  0  0  0  0  0  0  0  0
    1.4289   -4.1250    0.0000 C   0  0  0  0  0  0  0  0  0  0  0  0
    1.4289   -4.9500    0.0000 N   0  0  0  0  0  0  0  0  0  0  0  0
    0.7615   -5.4349    0.0000 C   0  0  0  0  0  0  0  0  0  0  0  0
   -0.0231   -5.1800    0.0000 S   0  0  0  0  0  0  0  0  0  0  0  0
   -0.8077   -4.9250    0.0000 C   0  0  0  0  0  0  0  0  0  0  0  0
    0.2318   -4.3954    0.0000 N   0  0  0  0  0  0  0  0  0  0  0  0
   -0.2781   -5.9646    0.0000 O   0  0  0  0  0  0  0  0  0  0  0  0
    1.0164   -6.2195    0.0000 N   0  0  0  0  0  0  0  0  0  0  0  0
    1.8414   -6.2195    0.0000 N   0  0  0  0  0  0  0  0  0  0  0  0
    2.3264   -6.8870    0.0000 C   0  0  0  0  0  0  0  0  0  0  0  0
    3.1468   -6.8007    0.0000 C   0  0  0  0  0  0  0  0  0  0  0  0
    3.6318   -7.4682    0.0000 C   0  0  0  0  0  0  0  0  0  0  0  0
    4.4522   -7.3820    0.0000 O   0  0  0  0  0  0  0  0  0  0  0  0
    4.7878   -6.6283    0.0000 C   0  0  0  0  0  0  0  0  0  0  0  0
    4.3029   -5.9608    0.0000 C   0  0  0  0  0  0  0  0  0  0  0  0
    5.6083   -6.5420    0.0000 C   0  0  0  0  0  0  0  0  0  0  0  0
    5.6945   -7.3625    0.0000 F   0  0  0  0  0  0  0  0  0  0  0  0
    5.5221   -5.7216    0.0000 F   0  0  0  0  0  0  0  0  0  0  0  0
    6.4288   -6.4558    0.0000 F   0  0  0  0  0  0  0  0  0  0  0  0
    3.2962   -8.2219    0.0000 C   0  0  0  0  0  0  0  0  0  0  0  0
    3.7811   -8.8893    0.0000 C   0  0  0  0  0  0  0  0  0  0  0  0
    3.4456   -9.6430    0.0000 O   0  0  0  0  0  0  0  0  0  0  0  0
    4.6016   -8.8031    0.0000 N   0  0  0  0  0  0  0  0  0  0  0  0
    5.0865   -9.4705    0.0000 C   0  0  0  0  0  0  0  0  0  0  0  0
    5.9070   -9.3843    0.0000 C   0  0  0  0  0  0  0  0  0  0  0  0
    6.2426   -8.6306    0.0000 F   0  0  0  0  0  0  0  0  0  0  0  0
    6.3919  -10.0517    0.0000 C   0  0  0  0  0  0  0  0  0  0  0  0
    6.0564  -10.8054    0.0000 C   0  0  0  0  0  0  0  0  0  0  0  0
    5.2359  -10.8916    0.0000 C   0  0  0  0  0  0  0  0  0  0  0  0
    4.7510  -10.2242    0.0000 C   0  0  0  0  0  0  0  0  0  0  0  0
    3.9305  -10.3104    0.0000 F   0  0  0  0  0  0  0  0  0  0  0  0
    2.4757   -8.3081    0.0000 C   0  0  0  0  0  0  0  0  0  0  0  0
    1.9908   -7.6407    0.0000 C   0  0  0  0  0  0  0  0  0  0  0  0
    1.1703   -7.7269    0.0000 F   0  0  0  0  0  0  0  0  0  0  0  0
    2.0964   -5.4349    0.0000 C   0  0  0  0  0  0  0  0  0  0  0  0
    2.8810   -5.1800    0.0000 O   0  0  0  0  0  0  0  0  0  0  0  0
  1  2  1  0  0  0  0
  2  3  1  0  0  0  0
  3  4  4  0  0  0  0
  4  5  1  0  0  0  0
  5  6  1  0  0  0  0
  5  7  2  0  0  0  0
  5  8  2  0  0  0  0
  4  9  4  0  0  0  0
  9 10  4  0  0  0  0
 10 11  1  0  0  0  0
 11 12  4  0  0  0  0
 12 13  4  0  0  0  0
 13 14  1  0  0  0  0
 14 15  1  0  0  0  0
 15 16  1  0  0  0  0
 15 17  1  0  0  0  0
 17 18  1  0  0  0  0
 17 19  1  0  0  0  0
 17 20  1  0  0  0  0
 13 21  4  0  0  0  0
 21 22  1  0  0  0  0
 22 23  2  0  0  0  0
 22 24  1  0  0  0  0
 24 25  1  0  0  0  0
 25 26  4  0  0  0  0
 26 27  1  0  0  0  0
 26 28  4  0  0  0  0
 28 29  4  0  0  0  0
 29 30  4  0  0  0  0
 30 31  4  0  0  0  0
 25 31  4  0  0  0  0
 31 32  1  0  0  0  0
 21 33  4  0  0  0  0
 33 34  4  0  0  0  0
 11 34  4  0  0  0  0
 34 35  1  0  0  0  0
 10 36  4  0  0  0  0
  3 36  4  0  0  0  0
 36 37  2  0  0  0  0
M  END
> <IC50(uM)>
9.0

> <Outcome>
0.0

> <BindingDB ID>
972672; 1098826

> <BindingDB MonomerID>
470550

> <BindingDB Ligand Name>
N-(2,6-difluorophenyl)-4-[4-ethyl-3-(S-methanesulfonimidoyl)-5-oxo-4,5-dihydro-1H-1,2,4-triazol-1-yl]-5-fluoro-2-{[(2S)-1,1,1-trifluoropropan-2-yl]oxy}benzamide (Mixture of Stereoisomers)::US10815215, Example 210; N-(2,6-difluorophenyl)-4-[4-ethyl-3-(S-methanesulfonimidoyl)-5-oxo-4,5-dihydro-1H-1,2,4-triazol-1-yl]-5-fluoro-2-{[(2S)-1,1,1-trifluoropropan-2-yl]oxy}benzamide (Mixture of Stereoisomers)::US10815215, Example 210::US11130745, Example 210

> <Curation/DataSource>
US Patent

> <Article DOI>
?

> <PMID>
?

> <Patent Number>
US10815215; US11130745

> <Authors>
Gradl, SN; Nguyen, D; Eis, K; Gunther, J; Stellfeld, T; Janzer, A; Christian, S; Muller, T; Sheikh, SE; Zhou, HJ; Zhao, C; Sykes, DB; Ferrara, SJ; Liu, K; Krober, M; Merz, C; Niehues, M; Schafer, M; Zimmermann, K; Nising, CF; Gradl, SN; Nguyen, D; Eis, K; Gunther, J; Stellfeld, T; Janzer, A; Christian, S; Muller, T; Sheikh, SE; Sykes, DB; Ferrara, SJ; Krober, M; Merz, C; Niehues, M; Schafer, M; Zimmermann, K; Nising, CF

> <Link to Ligand in BindingDB>
http://www.bindingdb.org/bind/chemsearch/marvin/MolStructure.jsp?monomerid=470550

> <Link to Ligand-Target Pair in BindingDB>
http://www.bindingdb.org/jsp/dbsearch/PrimarySearch_ki.jsp?energyterm=kJ/mole&tag=r21&monomerid=470550&enzyme=Dihydroorotate+dehydrogenase&column=ki&startPg=0&Increment=50&submit=Search

> <PubChem CID>
134470308

> <PubChem SID>
441609726

$$$$

  Mrv2115 07222212352D          

 38 41  0  0  0  0            999 V2000
   -5.1659    1.4455    0.0000 C   0  0  0  0  0  0  0  0  0  0  0  0
   -5.5784    0.7310    0.0000 C   0  0  0  0  0  0  0  0  0  0  0  0
   -6.4034    0.7310    0.0000 C   0  0  0  0  0  0  0  0  0  0  0  0
   -6.8159    0.0165    0.0000 C   0  0  0  0  0  0  0  0  0  0  0  0
   -6.4034   -0.6979    0.0000 C   0  0  0  0  0  0  0  0  0  0  0  0
   -6.8159   -1.4124    0.0000 C   0  0  0  0  0  0  0  0  0  0  0  0
   -7.2284   -2.1269    0.0000 F   0  0  0  0  0  0  0  0  0  0  0  0
   -6.1015   -1.8249    0.0000 F   0  0  0  0  0  0  0  0  0  0  0  0
   -7.5304   -0.9999    0.0000 F   0  0  0  0  0  0  0  0  0  0  0  0
   -5.5784   -0.6979    0.0000 C   0  0  0  0  0  0  0  0  0  0  0  0
   -5.1659    0.0165    0.0000 C   0  0  0  0  0  0  0  0  0  0  0  0
   -4.3409    0.0165    0.0000 N   0  0  0  0  0  0  0  0  0  0  0  0
   -3.9284   -0.6979    0.0000 C   0  0  0  0  0  0  0  0  0  0  0  0
   -4.3409   -1.4124    0.0000 O   0  0  0  0  0  0  0  0  0  0  0  0
   -3.1034   -0.6979    0.0000 C   0  0  0  0  0  0  0  0  0  0  0  0
   -2.6909    0.0165    0.0000 C   0  0  0  0  0  0  0  0  0  0  0  0
   -1.8659    0.0165    0.0000 C   0  0  0  0  0  0  0  0  0  0  0  0
   -1.4534    0.7310    0.0000 F   0  0  0  0  0  0  0  0  0  0  0  0
   -1.4534   -0.6979    0.0000 C   0  0  0  0  0  0  0  0  0  0  0  0
   -0.6284   -0.6979    0.0000 N   0  0  0  0  0  0  0  0  0  0  0  0
   -0.1435   -1.3654    0.0000 N   0  0  0  0  0  0  0  0  0  0  0  0
    0.6411   -1.1104    0.0000 C   0  0  0  0  0  0  0  0  0  0  0  0
    0.6411   -0.2854    0.0000 N   0  0  0  0  0  0  0  0  0  0  0  0
   -0.1435   -0.0305    0.0000 C   0  0  0  0  0  0  0  0  0  0  0  0
   -0.3984    0.7541    0.0000 O   0  0  0  0  0  0  0  0  0  0  0  0
    1.3556    0.1271    0.0000 C   0  0  0  0  0  0  0  0  0  0  0  0
    2.0701   -0.2854    0.0000 C   0  0  0  0  0  0  0  0  0  0  0  0
    2.0701   -1.1104    0.0000 C   0  0  0  0  0  0  0  0  0  0  0  0
    1.3556   -1.5229    0.0000 C   0  0  0  0  0  0  0  0  0  0  0  0
   -1.8659   -1.4124    0.0000 C   0  0  0  0  0  0  0  0  0  0  0  0
   -2.6909   -1.4124    0.0000 C   0  0  0  0  0  0  0  0  0  0  0  0
   -3.1034   -2.1269    0.0000 O   0  0  0  0  0  0  0  0  0  0  0  0
   -2.6909   -2.8414    0.0000 C   0  0  0  0  0  0  0  0  0  0  0  0
   -1.8659   -2.8414    0.0000 C   0  0  0  0  0  0  0  0  0  0  0  0
   -3.1034   -3.5558    0.0000 C   0  0  0  0  0  0  0  0  0  0  0  0
   -3.8179   -3.1433    0.0000 F   0  0  0  0  0  0  0  0  0  0  0  0
   -2.3890   -3.9683    0.0000 F   0  0  0  0  0  0  0  0  0  0  0  0
   -3.5159   -4.2703    0.0000 F   0  0  0  0  0  0  0  0  0  0  0  0
  1  2  1  0  0  0  0
  2  3  4  0  0  0  0
  3  4  4  0  0  0  0
  4  5  4  0  0  0  0
  5  6  1  0  0  0  0
  6  7  1  0  0  0  0
  6  8  1  0  0  0  0
  6  9  1  0  0  0  0
  5 10  4  0  0  0  0
 10 11  4  0  0  0  0
  2 11  4  0  0  0  0
 11 12  1  0  0  0  0
 12 13  1  0  0  0  0
 13 14  2  0  0  0  0
 13 15  1  0  0  0  0
 15 16  4  0  0  0  0
 16 17  4  0  0  0  0
 17 18  1  0  0  0  0
 17 19  4  0  0  0  0
 19 20  1  0  0  0  0
 20 21  4  0  0  0  0
 21 22  4  0  0  0  0
 22 23  4  0  0  0  0
 23 24  4  0  0  0  0
 20 24  4  0  0  0  0
 24 25  2  0  0  0  0
 23 26  1  0  0  0  0
 26 27  1  0  0  0  0
 27 28  1  0  0  0  0
 28 29  1  0  0  0  0
 22 29  1  0  0  0  0
 19 30  4  0  0  0  0
 30 31  4  0  0  0  0
 15 31  4  0  0  0  0
 31 32  1  0  0  0  0
 32 33  1  0  0  0  0
 33 34  1  0  0  0  0
 33 35  1  0  0  0  0
 35 36  1  0  0  0  0
 35 37  1  0  0  0  0
 35 38  1  0  0  0  0
M  END
> <IC50(uM)>
0.035

> <Outcome>
1.0

> <BindingDB ID>
1020470

> <BindingDB MonomerID>
490418

> <BindingDB Ligand Name>
5-fluoro-N-[2-methyl-5-(trifluoromethyl)phenyl]-4-(3-oxo-5,6,7,8-tetrahydro[1,2,4]triazolo[4,3-a]pyridin-2(3H)-yl)-2-{[(2S)-1,1,1-trifluoropropan-2-yl]oxy}benzamide::US10968216, Example 86

> <Curation/DataSource>
US Patent

> <Article DOI>
?

> <PMID>
?

> <Patent Number>
US10968216

> <Authors>
Gradl, SN; Nguyen, D; Eis, K; Gunther, J; Stellfeld, T; Janzer, A; Christian, S; Mueller, T; Sheikh, SE; Zhou, HJ; Zhao, C; Sykes, DB; Ferrara, SJ; Liu, K; Herbert, SA; Merz, C; Niehues, M; Nising, CF; Schafer, M; Zimmermann, K; Knablein, J; Thede, K; Faupel, T

> <Link to Ligand in BindingDB>
http://www.bindingdb.org/bind/chemsearch/marvin/MolStructure.jsp?monomerid=490418

> <Link to Ligand-Target Pair in BindingDB>
http://www.bindingdb.org/jsp/dbsearch/PrimarySearch_ki.jsp?energyterm=kJ/mole&tag=r21&monomerid=490418&enzyme=Dihydroorotate+dehydrogenase&column=ki&startPg=0&Increment=50&submit=Search

> <PubChem CID>
134474485

> <PubChem SID>
447117145

$$$$

  Mrv2115 07222212352D          

 28 30  0  0  0  0            999 V2000
    2.8579   -2.4750    0.0000 O   0  0  0  0  0  0  0  0  0  0  0  0
    2.1434   -2.8875    0.0000 C   0  0  0  0  0  0  0  0  0  0  0  0
    1.4289   -2.4750    0.0000 O   0  0  0  0  0  0  0  0  0  0  0  0
    2.1434   -3.7125    0.0000 C   0  0  0  0  0  0  0  0  0  0  0  0
    1.4289   -4.1250    0.0000 C   0  0  0  0  0  0  0  0  0  0  0  0
    1.4289   -4.9500    0.0000 C   0  0  0  0  0  0  0  0  0  0  0  0
    2.1434   -5.3625    0.0000 N   0  0  0  0  0  0  0  0  0  0  0  0
    2.8579   -4.9500    0.0000 C   0  0  0  0  0  0  0  0  0  0  0  0
    2.8579   -4.1250    0.0000 C   0  0  0  0  0  0  0  0  0  0  0  0
    3.5724   -3.7125    0.0000 N   0  0  0  0  0  0  0  0  0  0  0  0
    4.2868   -4.1250    0.0000 C   0  0  0  0  0  0  0  0  0  0  0  0
    5.0013   -3.7125    0.0000 C   0  0  0  0  0  0  0  0  0  0  0  0
    5.7158   -4.1250    0.0000 C   0  0  0  0  0  0  0  0  0  0  0  0
    5.7158   -4.9500    0.0000 C   0  0  0  0  0  0  0  0  0  0  0  0
    6.4302   -5.3625    0.0000 C   0  0  0  0  0  0  0  0  0  0  0  0
    7.1447   -4.9500    0.0000 C   0  0  0  0  0  0  0  0  0  0  0  0
    7.8592   -5.3625    0.0000 C   0  0  0  0  0  0  0  0  0  0  0  0
    7.8592   -6.1875    0.0000 C   0  0  0  0  0  0  0  0  0  0  0  0
    7.1447   -6.6000    0.0000 C   0  0  0  0  0  0  0  0  0  0  0  0
    7.1447   -7.4250    0.0000 O   0  0  0  0  0  0  0  0  0  0  0  0
    7.8592   -7.8375    0.0000 C   0  0  0  0  0  0  0  0  0  0  0  0
    8.5737   -8.2500    0.0000 F   0  0  0  0  0  0  0  0  0  0  0  0
    7.4467   -8.5520    0.0000 F   0  0  0  0  0  0  0  0  0  0  0  0
    8.2717   -7.1230    0.0000 F   0  0  0  0  0  0  0  0  0  0  0  0
    6.4302   -6.1875    0.0000 C   0  0  0  0  0  0  0  0  0  0  0  0
    5.0013   -5.3625    0.0000 C   0  0  0  0  0  0  0  0  0  0  0  0
    4.2868   -4.9500    0.0000 C   0  0  0  0  0  0  0  0  0  0  0  0
    3.5724   -5.3625    0.0000 F   0  0  0  0  0  0  0  0  0  0  0  0
  1  2  2  0  0  0  0
  2  3  1  0  0  0  0
  2  4  1  0  0  0  0
  4  5  4  0  0  0  0
  5  6  4  0  0  0  0
  6  7  4  0  0  0  0
  7  8  4  0  0  0  0
  8  9  4  0  0  0  0
  4  9  4  0  0  0  0
  9 10  1  0  0  0  0
 10 11  1  0  0  0  0
 11 12  4  0  0  0  0
 12 13  4  0  0  0  0
 13 14  4  0  0  0  0
 14 15  1  0  0  0  0
 15 16  4  0  0  0  0
 16 17  4  0  0  0  0
 17 18  4  0  0  0  0
 18 19  4  0  0  0  0
 19 20  1  0  0  0  0
 20 21  1  0  0  0  0
 21 22  1  0  0  0  0
 21 23  1  0  0  0  0
 21 24  1  0  0  0  0
 19 25  4  0  0  0  0
 15 25  4  0  0  0  0
 14 26  4  0  0  0  0
 26 27  4  0  0  0  0
 11 27  4  0  0  0  0
 27 28  1  0  0  0  0
M  END
> <IC50(uM)>
0.2

> <Outcome>
1.0

> <BindingDB ID>
51186841

> <BindingDB MonomerID>
50487966

> <BindingDB Ligand Name>
CHEMBL2263635

> <Curation/DataSource>
ChEMBL

> <Article DOI>
10.1007/s00044-011-9837-4

> <PMID>
?

> <Patent Number>
?

> <Authors>
n/a

> <Link to Ligand in BindingDB>
http://www.bindingdb.org/bind/chemsearch/marvin/MolStructure.jsp?monomerid=50487966

> <Link to Ligand-Target Pair in BindingDB>
http://www.bindingdb.org/jsp/dbsearch/PrimarySearch_ki.jsp?energyterm=kJ/mole&tag=r21&monomerid=50487966&enzyme=Dihydroorotate+dehydrogenase&column=ki&startPg=0&Increment=50&submit=Search

> <PubChem CID>
24987532

> <PubChem SID>
433955231

$$$$

  Mrv2115 07222212352D          

 21 22  0  0  0  0            999 V2000
    2.1434   -1.2375    0.0000 C   0  0  0  0  0  0  0  0  0  0  0  0
    1.4289   -1.6500    0.0000 C   0  0  0  0  0  0  0  0  0  0  0  0
    1.4289   -2.4750    0.0000 C   0  0  0  0  0  0  0  0  0  0  0  0
    2.0964   -2.9599    0.0000 O   0  0  0  0  0  0  0  0  0  0  0  0
    1.8414   -3.7445    0.0000 N   0  0  0  0  0  0  0  0  0  0  0  0
    1.0164   -3.7445    0.0000 C   0  0  0  0  0  0  0  0  0  0  0  0
    0.7615   -2.9599    0.0000 C   0  0  0  0  0  0  0  0  0  0  0  0
   -0.0231   -2.7050    0.0000 C   0  0  0  0  0  0  0  0  0  0  0  0
   -0.1946   -1.8980    0.0000 S   0  0  0  0  0  0  0  0  0  0  0  0
   -0.6362   -3.2570    0.0000 N   0  0  0  0  0  0  0  0  0  0  0  0
   -1.4208   -3.0021    0.0000 C   0  0  0  0  0  0  0  0  0  0  0  0
   -2.0339   -3.5541    0.0000 C   0  0  0  0  0  0  0  0  0  0  0  0
   -2.8186   -3.2992    0.0000 C   0  0  0  0  0  0  0  0  0  0  0  0
   -2.9901   -2.4922    0.0000 C   0  0  0  0  0  0  0  0  0  0  0  0
   -3.7747   -2.2373    0.0000 O   0  0  0  0  0  0  0  0  0  0  0  0
   -4.3878   -2.7893    0.0000 C   0  0  0  0  0  0  0  0  0  0  0  0
   -5.0009   -3.3413    0.0000 F   0  0  0  0  0  0  0  0  0  0  0  0
   -4.9398   -2.1762    0.0000 F   0  0  0  0  0  0  0  0  0  0  0  0
   -3.8358   -3.4024    0.0000 F   0  0  0  0  0  0  0  0  0  0  0  0
   -2.3770   -1.9402    0.0000 C   0  0  0  0  0  0  0  0  0  0  0  0
   -1.5924   -2.1951    0.0000 C   0  0  0  0  0  0  0  0  0  0  0  0
  1  2  1  0  0  0  0
  2  3  1  0  0  0  0
  3  4  4  0  0  0  0
  4  5  4  0  0  0  0
  5  6  4  0  0  0  0
  6  7  4  0  0  0  0
  3  7  4  0  0  0  0
  7  8  1  0  0  0  0
  8  9  2  0  0  0  0
  8 10  1  0  0  0  0
 10 11  1  0  0  0  0
 11 12  4  0  0  0  0
 12 13  4  0  0  0  0
 13 14  4  0  0  0  0
 14 15  1  0  0  0  0
 15 16  1  0  0  0  0
 16 17  1  0  0  0  0
 16 18  1  0  0  0  0
 16 19  1  0  0  0  0
 14 20  4  0  0  0  0
 20 21  4  0  0  0  0
 11 21  4  0  0  0  0
M  END
> <IC50(uM)>
0.7

> <Outcome>
1.0

> <BindingDB ID>
50123301

> <BindingDB MonomerID>
50071393

> <BindingDB Ligand Name>
5-Ethyl-isoxazole-4-carbothioic acid (4-trifluoromethoxy-phenyl)-amide::CHEMBL306784

> <Curation/DataSource>
ChEMBL

> <Article DOI>
10.1016/s0960-894x(98)00365-5

> <PMID>
9873513

> <Patent Number>
?

> <Authors>
Albert, R; Knecht, H; Andersen, E; Hungerford, V; Schreier, MH; Papageorgiou, C

> <Link to Ligand in BindingDB>
http://www.bindingdb.org/bind/chemsearch/marvin/MolStructure.jsp?monomerid=50071393

> <Link to Ligand-Target Pair in BindingDB>
http://www.bindingdb.org/jsp/dbsearch/PrimarySearch_ki.jsp?energyterm=kJ/mole&tag=r21&monomerid=50071393&enzyme=Dihydroorotate+dehydrogenase&column=ki&startPg=0&Increment=50&submit=Search

> <PubChem CID>
10064328

> <PubChem SID>
103965147

$$$$

  Mrv2115 07222212352D          

 24 28  0  0  0  0            999 V2000
    0.0559   -0.7625    0.0000 O   0  0  0  0  0  0  0  0  0  0  0  0
    0.8405   -0.5076    0.0000 C   0  0  0  0  0  0  0  0  0  0  0  0
    1.0120    0.2994    0.0000 C   0  0  0  0  0  0  0  0  0  0  0  0
    0.3989    0.8514    0.0000 C   0  0  0  0  0  0  0  0  0  0  0  0
    0.5705    1.6584    0.0000 C   0  0  0  0  0  0  0  0  0  0  0  0
    1.3551    1.9134    0.0000 C   0  0  0  0  0  0  0  0  0  0  0  0
    1.9682    1.3613    0.0000 C   0  0  0  0  0  0  0  0  0  0  0  0
    1.7967    0.5543    0.0000 C   0  0  0  0  0  0  0  0  0  0  0  0
    2.4097    0.0023    0.0000 C   0  0  0  0  0  0  0  0  0  0  0  0
    3.1944    0.2573    0.0000 O   0  0  0  0  0  0  0  0  0  0  0  0
    2.2382   -0.8047    0.0000 C   0  0  0  0  0  0  0  0  0  0  0  0
    1.4536   -1.0596    0.0000 C   0  0  0  0  0  0  0  0  0  0  0  0
    1.4536   -1.8846    0.0000 N   0  0  0  0  0  0  0  0  0  0  0  0
    2.2382   -2.1395    0.0000 N   0  0  0  0  0  0  0  0  0  0  0  0
    2.7231   -1.4721    0.0000 N   0  0  0  0  0  0  0  0  0  0  0  0
    3.5481   -1.4721    0.0000 C   0  0  0  0  0  0  0  0  0  0  0  0
    4.0331   -0.8047    0.0000 N   0  0  0  0  0  0  0  0  0  0  0  0
    4.8177   -1.0596    0.0000 C   0  0  0  0  0  0  0  0  0  0  0  0
    5.5322   -0.6471    0.0000 C   0  0  0  0  0  0  0  0  0  0  0  0
    6.2466   -1.0596    0.0000 C   0  0  0  0  0  0  0  0  0  0  0  0
    6.2466   -1.8846    0.0000 C   0  0  0  0  0  0  0  0  0  0  0  0
    5.5322   -2.2971    0.0000 C   0  0  0  0  0  0  0  0  0  0  0  0
    4.8177   -1.8846    0.0000 C   0  0  0  0  0  0  0  0  0  0  0  0
    4.0331   -2.1395    0.0000 N   0  0  0  0  0  0  0  0  0  0  0  0
  1  2  2  0  0  0  0
  2  3  1  0  0  0  0
  3  4  4  0  0  0  0
  4  5  4  0  0  0  0
  5  6  4  0  0  0  0
  6  7  4  0  0  0  0
  7  8  4  0  0  0  0
  3  8  4  0  0  0  0
  8  9  1  0  0  0  0
  9 10  2  0  0  0  0
  9 11  1  0  0  0  0
 11 12  4  0  0  0  0
  2 12  1  0  0  0  0
 12 13  4  0  0  0  0
 13 14  4  0  0  0  0
 14 15  4  0  0  0  0
 11 15  4  0  0  0  0
 15 16  1  0  0  0  0
 16 17  4  0  0  0  0
 17 18  4  0  0  0  0
 18 19  4  0  0  0  0
 19 20  4  0  0  0  0
 20 21  4  0  0  0  0
 21 22  4  0  0  0  0
 22 23  4  0  0  0  0
 18 23  4  0  0  0  0
 23 24  4  0  0  0  0
 16 24  4  0  0  0  0
M  STY  1   1 DAT
M  SAL   1  1  24
M  SDT   1 MRV_IMPLICIT_H                                        
M  SDD   1     0.5304   -0.4125    DR    ALL  0       0  
M  SED   1 IMPL_H1
M  END
> <IC50(uM)>
1.0

> <Outcome>
1.0

> <BindingDB ID>
51338176

> <BindingDB MonomerID>
50541650

> <BindingDB Ligand Name>
CHEMBL4648741

> <Curation/DataSource>
ChEMBL

> <Article DOI>
10.1021/acs.jmedchem.0c00512

> <PMID>
32496056

> <Patent Number>
?

> <Authors>
Zuo, Z; Liu, X; Qian, X; Zeng, T; Sang, N; Liu, H; Zhou, Y; Tao, L; Zhou, X; Su, N; Yu, Y; Chen, Q; Luo, Y; Zhao, Y

> <Link to Ligand in BindingDB>
http://www.bindingdb.org/bind/chemsearch/marvin/MolStructure.jsp?monomerid=50541650

> <Link to Ligand-Target Pair in BindingDB>
http://www.bindingdb.org/jsp/dbsearch/PrimarySearch_ki.jsp?energyterm=kJ/mole&tag=r21&monomerid=50541650&enzyme=Dihydroorotate+dehydrogenase&column=ki&startPg=0&Increment=50&submit=Search

> <PubChem CID>
156021212

> <PubChem SID>
442143213

$$$$

  Mrv2115 07222212352D          

 35 38  0  0  0  0            999 V2000
   -5.1659    1.4455    0.0000 C   0  0  0  0  0  0  0  0  0  0  0  0
   -5.5784    0.7310    0.0000 C   0  0  0  0  0  0  0  0  0  0  0  0
   -6.4034    0.7310    0.0000 C   0  0  0  0  0  0  0  0  0  0  0  0
   -6.8159    0.0165    0.0000 C   0  0  0  0  0  0  0  0  0  0  0  0
   -6.4034   -0.6979    0.0000 C   0  0  0  0  0  0  0  0  0  0  0  0
   -5.5784   -0.6979    0.0000 C   0  0  0  0  0  0  0  0  0  0  0  0
   -5.1659   -1.4124    0.0000 Cl  0  0  0  0  0  0  0  0  0  0  0  0
   -5.1659    0.0165    0.0000 C   0  0  0  0  0  0  0  0  0  0  0  0
   -4.3409    0.0165    0.0000 N   0  0  0  0  0  0  0  0  0  0  0  0
   -3.9284   -0.6979    0.0000 C   0  0  0  0  0  0  0  0  0  0  0  0
   -4.3409   -1.4124    0.0000 O   0  0  0  0  0  0  0  0  0  0  0  0
   -3.1034   -0.6979    0.0000 C   0  0  0  0  0  0  0  0  0  0  0  0
   -2.6909    0.0165    0.0000 C   0  0  0  0  0  0  0  0  0  0  0  0
   -1.8659    0.0165    0.0000 C   0  0  0  0  0  0  0  0  0  0  0  0
   -1.4534    0.7310    0.0000 F   0  0  0  0  0  0  0  0  0  0  0  0
   -1.4534   -0.6979    0.0000 C   0  0  0  0  0  0  0  0  0  0  0  0
   -0.6284   -0.6979    0.0000 N   0  0  0  0  0  0  0  0  0  0  0  0
   -0.1435   -1.3654    0.0000 N   0  0  0  0  0  0  0  0  0  0  0  0
    0.6411   -1.1104    0.0000 C   0  0  0  0  0  0  0  0  0  0  0  0
    0.6411   -0.2854    0.0000 N   0  0  0  0  0  0  0  0  0  0  0  0
   -0.1435   -0.0305    0.0000 C   0  0  0  0  0  0  0  0  0  0  0  0
   -0.3984    0.7541    0.0000 O   0  0  0  0  0  0  0  0  0  0  0  0
    1.3556    0.1271    0.0000 C   0  0  0  0  0  0  0  0  0  0  0  0
    2.0701   -0.2854    0.0000 C   0  0  0  0  0  0  0  0  0  0  0  0
    2.0701   -1.1104    0.0000 O   0  0  0  0  0  0  0  0  0  0  0  0
    1.3556   -1.5229    0.0000 C   0  0  0  0  0  0  0  0  0  0  0  0
   -1.8659   -1.4124    0.0000 C   0  0  0  0  0  0  0  0  0  0  0  0
   -2.6909   -1.4124    0.0000 C   0  0  0  0  0  0  0  0  0  0  0  0
   -3.1034   -2.1269    0.0000 O   0  0  0  0  0  0  0  0  0  0  0  0
   -2.6909   -2.8414    0.0000 C   0  0  0  0  0  0  0  0  0  0  0  0
   -1.8659   -2.8414    0.0000 C   0  0  0  0  0  0  0  0  0  0  0  0
   -3.1034   -3.5558    0.0000 C   0  0  0  0  0  0  0  0  0  0  0  0
   -3.8179   -3.1433    0.0000 F   0  0  0  0  0  0  0  0  0  0  0  0
   -2.3890   -3.9683    0.0000 F   0  0  0  0  0  0  0  0  0  0  0  0
   -3.5159   -4.2703    0.0000 F   0  0  0  0  0  0  0  0  0  0  0  0
  1  2  1  0  0  0  0
  2  3  4  0  0  0  0
  3  4  4  0  0  0  0
  4  5  4  0  0  0  0
  5  6  4  0  0  0  0
  6  7  1  0  0  0  0
  6  8  4  0  0  0  0
  2  8  4  0  0  0  0
  8  9  1  0  0  0  0
  9 10  1  0  0  0  0
 10 11  2  0  0  0  0
 10 12  1  0  0  0  0
 12 13  4  0  0  0  0
 13 14  4  0  0  0  0
 14 15  1  0  0  0  0
 14 16  4  0  0  0  0
 16 17  1  0  0  0  0
 17 18  4  0  0  0  0
 18 19  4  0  0  0  0
 19 20  4  0  0  0  0
 20 21  4  0  0  0  0
 17 21  4  0  0  0  0
 21 22  2  0  0  0  0
 20 23  1  0  0  0  0
 23 24  1  0  0  0  0
 24 25  1  0  0  0  0
 25 26  1  0  0  0  0
 19 26  1  0  0  0  0
 16 27  4  0  0  0  0
 27 28  4  0  0  0  0
 12 28  4  0  0  0  0
 28 29  1  0  0  0  0
 29 30  1  0  0  0  0
 30 31  1  0  0  0  0
 30 32  1  0  0  0  0
 32 33  1  0  0  0  0
 32 34  1  0  0  0  0
 32 35  1  0  0  0  0
M  END
> <IC50(uM)>
0.007

> <Outcome>
1.0

> <BindingDB ID>
1020580

> <BindingDB MonomerID>
490519

> <BindingDB Ligand Name>
N-(2-chloro-6-methylphenyl)-5-fluoro-4-(3-oxo-5,6-dihydro-3H-[1,2,4]triazolo[3,4-c][1,4]oxazin-2(8H)-yl)-2-{[(2S)-1,1,1-trifluoropropan-2-yl]oxy}benzamide::US10968216, Example 187

> <Curation/DataSource>
US Patent

> <Article DOI>
?

> <PMID>
?

> <Patent Number>
US10968216

> <Authors>
Gradl, SN; Nguyen, D; Eis, K; Gunther, J; Stellfeld, T; Janzer, A; Christian, S; Mueller, T; Sheikh, SE; Zhou, HJ; Zhao, C; Sykes, DB; Ferrara, SJ; Liu, K; Herbert, SA; Merz, C; Niehues, M; Nising, CF; Schafer, M; Zimmermann, K; Knablein, J; Thede, K; Faupel, T

> <Link to Ligand in BindingDB>
http://www.bindingdb.org/bind/chemsearch/marvin/MolStructure.jsp?monomerid=490519

> <Link to Ligand-Target Pair in BindingDB>
http://www.bindingdb.org/jsp/dbsearch/PrimarySearch_ki.jsp?energyterm=kJ/mole&tag=r21&monomerid=490519&enzyme=Dihydroorotate+dehydrogenase&column=ki&startPg=0&Increment=50&submit=Search

> <PubChem CID>
134473997

> <PubChem SID>
447117245

$$$$

  Mrv2115 07222212352D          

 33 37  0  0  0  0            999 V2000
    4.0668    2.3479    0.0000 C   0  0  0  0  0  0  0  0  0  0  0  0
    3.3523    1.9354    0.0000 C   0  0  0  0  0  0  0  0  0  0  0  0
    3.3523    1.1104    0.0000 C   0  0  0  0  0  0  0  0  0  0  0  0
    2.6378    0.6979    0.0000 C   0  0  0  0  0  0  0  0  0  0  0  0
    2.6378   -0.1271    0.0000 C   0  0  0  0  0  0  0  0  0  0  0  0
    1.9233   -0.5396    0.0000 O   0  0  0  0  0  0  0  0  0  0  0  0
    3.3523   -0.5396    0.0000 O   0  0  0  0  0  0  0  0  0  0  0  0
    1.9233    1.1104    0.0000 C   0  0  0  0  0  0  0  0  0  0  0  0
    1.1387    0.8555    0.0000 N   0  0  0  0  0  0  0  0  0  0  0  0
    0.6538    1.5229    0.0000 C   0  0  0  0  0  0  0  0  0  0  0  0
   -0.1712    1.5229    0.0000 C   0  0  0  0  0  0  0  0  0  0  0  0
   -0.5837    0.8085    0.0000 C   0  0  0  0  0  0  0  0  0  0  0  0
   -1.4087    0.8085    0.0000 C   0  0  0  0  0  0  0  0  0  0  0  0
   -1.8212    1.5229    0.0000 C   0  0  0  0  0  0  0  0  0  0  0  0
   -2.6462    1.5229    0.0000 C   0  0  0  0  0  0  0  0  0  0  0  0
   -3.0587    0.8085    0.0000 C   0  0  0  0  0  0  0  0  0  0  0  0
   -3.8837    0.8085    0.0000 C   0  0  0  0  0  0  0  0  0  0  0  0
   -4.2962    1.5229    0.0000 C   0  0  0  0  0  0  0  0  0  0  0  0
   -3.8837    2.2374    0.0000 C   0  0  0  0  0  0  0  0  0  0  0  0
   -4.2962    2.9519    0.0000 O   0  0  0  0  0  0  0  0  0  0  0  0
   -5.1212    2.9519    0.0000 C   0  0  0  0  0  0  0  0  0  0  0  0
   -5.5337    3.6664    0.0000 C   0  0  0  0  0  0  0  0  0  0  0  0
   -6.3587    3.6664    0.0000 C   0  0  0  0  0  0  0  0  0  0  0  0
   -6.7712    4.3808    0.0000 C   0  0  0  0  0  0  0  0  0  0  0  0
   -6.3587    5.0953    0.0000 C   0  0  0  0  0  0  0  0  0  0  0  0
   -5.5337    5.0953    0.0000 C   0  0  0  0  0  0  0  0  0  0  0  0
   -5.1212    4.3808    0.0000 C   0  0  0  0  0  0  0  0  0  0  0  0
   -3.0587    2.2374    0.0000 C   0  0  0  0  0  0  0  0  0  0  0  0
   -1.4087    2.2374    0.0000 C   0  0  0  0  0  0  0  0  0  0  0  0
   -0.5837    2.2374    0.0000 C   0  0  0  0  0  0  0  0  0  0  0  0
    1.1387    2.1904    0.0000 N   0  0  0  0  0  0  0  0  0  0  0  0
    1.9233    1.9354    0.0000 C   0  0  0  0  0  0  0  0  0  0  0  0
    2.6378    2.3479    0.0000 C   0  0  0  0  0  0  0  0  0  0  0  0
  1  2  1  0  0  0  0
  2  3  4  0  0  0  0
  3  4  4  0  0  0  0
  4  5  1  0  0  0  0
  5  6  2  0  0  0  0
  5  7  1  0  0  0  0
  4  8  4  0  0  0  0
  8  9  4  0  0  0  0
  9 10  4  0  0  0  0
 10 11  1  0  0  0  0
 11 12  4  0  0  0  0
 12 13  4  0  0  0  0
 13 14  4  0  0  0  0
 14 15  1  0  0  0  0
 15 16  4  0  0  0  0
 16 17  4  0  0  0  0
 17 18  4  0  0  0  0
 18 19  4  0  0  0  0
 19 20  1  0  0  0  0
 20 21  1  0  0  0  0
 21 22  1  0  0  0  0
 22 23  4  0  0  0  0
 23 24  4  0  0  0  0
 24 25  4  0  0  0  0
 25 26  4  0  0  0  0
 26 27  4  0  0  0  0
 22 27  4  0  0  0  0
 19 28  4  0  0  0  0
 15 28  4  0  0  0  0
 14 29  4  0  0  0  0
 29 30  4  0  0  0  0
 11 30  4  0  0  0  0
 10 31  4  0  0  0  0
 31 32  4  0  0  0  0
  8 32  4  0  0  0  0
 32 33  4  0  0  0  0
  2 33  4  0  0  0  0
M  STY  1   1 DAT
M  SAL   1  1  31
M  SDT   1 MRV_IMPLICIT_H                                        
M  SDD   1     0.5304   -0.4125    DR    ALL  0       0  
M  SED   1 IMPL_H1
M  END
> <IC50(uM)>
1.2

> <Outcome>
0.0

> <BindingDB ID>
297817

> <BindingDB MonomerID>
155473

> <BindingDB Ligand Name>
US9006454, I115

> <Curation/DataSource>
US Patent

> <Article DOI>
?

> <PMID>
?

> <Patent Number>
US9006454

> <Authors>
Thunuguntla, SS; Subramanya, H; Kunnam, SR; Sanivaru Vijay, SR; Bingi, C; Kusanur, R; Schwarz, M; Arlt, M

> <Link to Ligand in BindingDB>
http://www.bindingdb.org/bind/chemsearch/marvin/MolStructure.jsp?monomerid=155473

> <Link to Ligand-Target Pair in BindingDB>
http://www.bindingdb.org/jsp/dbsearch/PrimarySearch_ki.jsp?energyterm=kJ/mole&tag=r21&monomerid=155473&enzyme=Dihydroorotate+dehydrogenase&column=ki&startPg=0&Increment=50&submit=Search

> <PubChem CID>
58073792

> <PubChem SID>
253658410

$$$$

  Mrv2115 07222212352D          

 37 40  0  0  0  0            999 V2000
   -0.6284    2.1599    0.0000 C   0  0  0  0  0  0  0  0  0  0  0  0
   -1.4534    2.1599    0.0000 C   0  0  0  0  0  0  0  0  0  0  0  0
   -1.8659    1.4455    0.0000 C   0  0  0  0  0  0  0  0  0  0  0  0
   -2.6909    1.4455    0.0000 C   0  0  0  0  0  0  0  0  0  0  0  0
   -3.1034    2.1599    0.0000 C   0  0  0  0  0  0  0  0  0  0  0  0
   -3.1034    0.7310    0.0000 O   0  0  0  0  0  0  0  0  0  0  0  0
   -2.6909    0.0165    0.0000 C   0  0  0  0  0  0  0  0  0  0  0  0
   -1.8659    0.0165    0.0000 C   0  0  0  0  0  0  0  0  0  0  0  0
   -1.4534   -0.6979    0.0000 C   0  0  0  0  0  0  0  0  0  0  0  0
   -0.6284   -0.6979    0.0000 N   0  0  0  0  0  0  0  0  0  0  0  0
   -0.1435   -1.3654    0.0000 N   0  0  0  0  0  0  0  0  0  0  0  0
    0.6411   -1.1104    0.0000 C   0  0  0  0  0  0  0  0  0  0  0  0
    0.6411   -0.2854    0.0000 N   0  0  0  0  0  0  0  0  0  0  0  0
   -0.1435   -0.0305    0.0000 C   0  0  0  0  0  0  0  0  0  0  0  0
   -0.3984    0.7541    0.0000 O   0  0  0  0  0  0  0  0  0  0  0  0
    1.3556    0.1271    0.0000 C   0  0  0  0  0  0  0  0  0  0  0  0
    2.0701   -0.2854    0.0000 C   0  0  0  0  0  0  0  0  0  0  0  0
    2.0701   -1.1104    0.0000 C   0  0  0  0  0  0  0  0  0  0  0  0
    1.3556   -1.5229    0.0000 C   0  0  0  0  0  0  0  0  0  0  0  0
   -1.8659   -1.4124    0.0000 C   0  0  0  0  0  0  0  0  0  0  0  0
   -1.4534   -2.1269    0.0000 F   0  0  0  0  0  0  0  0  0  0  0  0
   -2.6909   -1.4124    0.0000 C   0  0  0  0  0  0  0  0  0  0  0  0
   -3.1034   -0.6979    0.0000 C   0  0  0  0  0  0  0  0  0  0  0  0
   -3.9284   -0.6979    0.0000 C   0  0  0  0  0  0  0  0  0  0  0  0
   -4.3409    0.0165    0.0000 O   0  0  0  0  0  0  0  0  0  0  0  0
   -4.3409   -1.4124    0.0000 N   0  0  0  0  0  0  0  0  0  0  0  0
   -5.1659   -1.4124    0.0000 C   0  0  0  0  0  0  0  0  0  0  0  0
   -5.5784   -0.6979    0.0000 C   0  0  0  0  0  0  0  0  0  0  0  0
   -5.1659    0.0165    0.0000 C   0  0  0  0  0  0  0  0  0  0  0  0
   -6.4034   -0.6979    0.0000 C   0  0  0  0  0  0  0  0  0  0  0  0
   -6.8159   -1.4124    0.0000 C   0  0  0  0  0  0  0  0  0  0  0  0
   -6.4034   -2.1269    0.0000 C   0  0  0  0  0  0  0  0  0  0  0  0
   -5.5784   -2.1269    0.0000 C   0  0  0  0  0  0  0  0  0  0  0  0
   -5.1659   -2.8414    0.0000 C   0  0  0  0  0  0  0  0  0  0  0  0
   -4.7534   -3.5558    0.0000 F   0  0  0  0  0  0  0  0  0  0  0  0
   -5.8804   -3.2539    0.0000 F   0  0  0  0  0  0  0  0  0  0  0  0
   -4.4515   -2.4289    0.0000 F   0  0  0  0  0  0  0  0  0  0  0  0
  1  2  1  0  0  0  0
  2  3  1  0  0  0  0
  3  4  1  0  0  0  0
  4  5  1  0  0  0  0
  4  6  1  0  0  0  0
  6  7  1  0  0  0  0
  7  8  4  0  0  0  0
  8  9  4  0  0  0  0
  9 10  1  0  0  0  0
 10 11  4  0  0  0  0
 11 12  4  0  0  0  0
 12 13  4  0  0  0  0
 13 14  4  0  0  0  0
 10 14  4  0  0  0  0
 14 15  2  0  0  0  0
 13 16  1  0  0  0  0
 16 17  1  0  0  0  0
 17 18  1  0  0  0  0
 18 19  1  0  0  0  0
 12 19  1  0  0  0  0
  9 20  4  0  0  0  0
 20 21  1  0  0  0  0
 20 22  4  0  0  0  0
 22 23  4  0  0  0  0
  7 23  4  0  0  0  0
 23 24  1  0  0  0  0
 24 25  2  0  0  0  0
 24 26  1  0  0  0  0
 26 27  1  0  0  0  0
 27 28  4  0  0  0  0
 28 29  1  0  0  0  0
 28 30  4  0  0  0  0
 30 31  4  0  0  0  0
 31 32  4  0  0  0  0
 32 33  4  0  0  0  0
 27 33  4  0  0  0  0
 33 34  1  0  0  0  0
 34 35  1  0  0  0  0
 34 36  1  0  0  0  0
 34 37  1  0  0  0  0
M  END
> <IC50(uM)>
0.0027

> <Outcome>
1.0

> <BindingDB ID>
1020391

> <BindingDB MonomerID>
490347

> <BindingDB Ligand Name>
5-fluoro-N-[2-methyl-6-(trifluoromethyl)phenyl]-4-(3-oxo-5,6,7,8-tetrahydro[1,2,4]triazolo[4,3-a]pyridin-2(3H)-yl)-2-[(2S)-pentan-2-yloxy]benzamide::US10968216, Example 15

> <Curation/DataSource>
US Patent

> <Article DOI>
?

> <PMID>
?

> <Patent Number>
US10968216

> <Authors>
Gradl, SN; Nguyen, D; Eis, K; Gunther, J; Stellfeld, T; Janzer, A; Christian, S; Mueller, T; Sheikh, SE; Zhou, HJ; Zhao, C; Sykes, DB; Ferrara, SJ; Liu, K; Herbert, SA; Merz, C; Niehues, M; Nising, CF; Schafer, M; Zimmermann, K; Knablein, J; Thede, K; Faupel, T

> <Link to Ligand in BindingDB>
http://www.bindingdb.org/bind/chemsearch/marvin/MolStructure.jsp?monomerid=490347

> <Link to Ligand-Target Pair in BindingDB>
http://www.bindingdb.org/jsp/dbsearch/PrimarySearch_ki.jsp?energyterm=kJ/mole&tag=r21&monomerid=490347&enzyme=Dihydroorotate+dehydrogenase&column=ki&startPg=0&Increment=50&submit=Search

> <PubChem CID>
142335879

> <PubChem SID>
447117074

$$$$

  Mrv2115 07222212352D          

 21 23  0  0  0  0            999 V2000
    4.0668    2.3479    0.0000 C   0  0  0  0  0  0  0  0  0  0  0  0
    3.3523    1.9354    0.0000 C   0  0  0  0  0  0  0  0  0  0  0  0
    3.3523    1.1104    0.0000 C   0  0  0  0  0  0  0  0  0  0  0  0
    2.6378    0.6979    0.0000 C   0  0  0  0  0  0  0  0  0  0  0  0
    2.6378   -0.1271    0.0000 N   0  0  0  0  0  0  0  0  0  0  0  0
    1.9233   -0.5396    0.0000 C   0  0  0  0  0  0  0  0  0  0  0  0
    1.9233   -1.3646    0.0000 C   0  0  0  0  0  0  0  0  0  0  0  0
    1.2089   -1.7771    0.0000 C   0  0  0  0  0  0  0  0  0  0  0  0
    0.4944   -1.3646    0.0000 C   0  0  0  0  0  0  0  0  0  0  0  0
   -0.2201   -1.7771    0.0000 C   0  0  0  0  0  0  0  0  0  0  0  0
   -0.9345   -2.1896    0.0000 F   0  0  0  0  0  0  0  0  0  0  0  0
   -0.6326   -1.0626    0.0000 F   0  0  0  0  0  0  0  0  0  0  0  0
    0.1924   -2.4915    0.0000 F   0  0  0  0  0  0  0  0  0  0  0  0
    0.4944   -0.5396    0.0000 C   0  0  0  0  0  0  0  0  0  0  0  0
    1.2089   -0.1271    0.0000 C   0  0  0  0  0  0  0  0  0  0  0  0
    1.9233    1.1104    0.0000 N   0  0  0  0  0  0  0  0  0  0  0  0
    1.1387    0.8555    0.0000 N   0  0  0  0  0  0  0  0  0  0  0  0
    0.6538    1.5229    0.0000 C   0  0  0  0  0  0  0  0  0  0  0  0
    1.1387    2.1904    0.0000 N   0  0  0  0  0  0  0  0  0  0  0  0
    1.9233    1.9354    0.0000 C   0  0  0  0  0  0  0  0  0  0  0  0
    2.6378    2.3479    0.0000 N   0  0  0  0  0  0  0  0  0  0  0  0
  1  2  1  0  0  0  0
  2  3  4  0  0  0  0
  3  4  4  0  0  0  0
  4  5  1  0  0  0  0
  5  6  1  0  0  0  0
  6  7  4  0  0  0  0
  7  8  4  0  0  0  0
  8  9  4  0  0  0  0
  9 10  1  0  0  0  0
 10 11  1  0  0  0  0
 10 12  1  0  0  0  0
 10 13  1  0  0  0  0
  9 14  4  0  0  0  0
 14 15  4  0  0  0  0
  6 15  4  0  0  0  0
  4 16  4  0  0  0  0
 16 17  4  0  0  0  0
 17 18  4  0  0  0  0
 18 19  4  0  0  0  0
 19 20  4  0  0  0  0
 16 20  4  0  0  0  0
 20 21  4  0  0  0  0
  2 21  4  0  0  0  0
M  END
> <IC50(uM)>
76.66666666666666

> <Outcome>
0.0

> <BindingDB ID>
404292; 52448; 50102040

> <BindingDB MonomerID>
28817

> <BindingDB Ligand Name>
5-methyl-N-[4-(trifluoromethyl)phenyl]-[1,2,4]triazolo[1,5-a]pyrimidin-7-amine::DSM74::triazolopyrimidine-based compound, DSM74

> <Curation/DataSource>
Curated from the literature by BindingDB; ChEMBL

> <Article DOI>
10.1074/jbc.M114.558353; 10.1021/jm801343r; 10.1021/jm500481t

> <PMID>
24782313; 19296651; 24801997

> <Patent Number>
?

> <Authors>
Ross, LS; Gamo, FJ; Lafuente-Monasterio, MJ; Singh, OM; Rowland, P; Wiegand, RC; Wirth, DF; Gujjar, R; Marwaha, A; El Mazouni, F; White, J; White, KL; Creason, S; Shackleford, DM; Baldwin, J; Charman, WN; Buckner, FS; Charman, S; Rathod, PK; Phillips, MA; Deng, X; Kokkonda, S; El Mazouni, F; White, J; Burrows, JN; Kaminsky, W; Charman, SA; Matthews, D; Rathod, PK; Phillips, MA

> <Link to Ligand in BindingDB>
http://www.bindingdb.org/bind/chemsearch/marvin/MolStructure.jsp?monomerid=28817

> <Link to Ligand-Target Pair in BindingDB>
http://www.bindingdb.org/jsp/dbsearch/PrimarySearch_ki.jsp?energyterm=kJ/mole&tag=r21&monomerid=28817&enzyme=Dihydroorotate+dehydrogenase&column=ki&startPg=0&Increment=50&submit=Search; http://www.bindingdb.org/jsp/dbsearch/PrimarySearch_ki.jsp?energyterm=kJ/mole&tag=r21&monomerid=28817&enzyme=Dihydroorotate+Dehydrogenase+%28DHODH%29&column=ki&startPg=0&Increment=50&submit=Search

> <PubChem CID>
25263414

> <PubChem SID>
58098005

$$$$

  Mrv2115 07222212352D          

 36 38  0  0  0  0            999 V2000
    2.1434   -2.8875    0.0000 C   0  0  0  0  0  0  0  0  0  0  0  0
    2.1434   -3.7125    0.0000 C   0  0  0  0  0  0  0  0  0  0  0  0
    1.4289   -4.1250    0.0000 C   0  0  0  0  0  0  0  0  0  0  0  0
    0.7145   -3.7125    0.0000 C   0  0  0  0  0  0  0  0  0  0  0  0
    1.4289   -4.9500    0.0000 N   0  0  0  0  0  0  0  0  0  0  0  0
    0.7615   -5.4349    0.0000 C   0  0  0  0  0  0  0  0  0  0  0  0
   -0.0231   -5.1800    0.0000 C   0  0  0  0  0  0  0  0  0  0  0  0
    1.0164   -6.2195    0.0000 N   0  0  0  0  0  0  0  0  0  0  0  0
    1.8414   -6.2195    0.0000 N   0  0  0  0  0  0  0  0  0  0  0  0
    2.3264   -6.8870    0.0000 C   0  0  0  0  0  0  0  0  0  0  0  0
    3.1468   -6.8007    0.0000 C   0  0  0  0  0  0  0  0  0  0  0  0
    3.6318   -7.4682    0.0000 C   0  0  0  0  0  0  0  0  0  0  0  0
    4.4522   -7.3820    0.0000 O   0  0  0  0  0  0  0  0  0  0  0  0
    4.7878   -6.6283    0.0000 C   0  0  0  0  0  0  0  0  0  0  0  0
    4.3029   -5.9608    0.0000 C   0  0  0  0  0  0  0  0  0  0  0  0
    5.6083   -6.5420    0.0000 C   0  0  0  0  0  0  0  0  0  0  0  0
    5.6945   -7.3625    0.0000 F   0  0  0  0  0  0  0  0  0  0  0  0
    5.5221   -5.7216    0.0000 F   0  0  0  0  0  0  0  0  0  0  0  0
    6.4288   -6.4558    0.0000 F   0  0  0  0  0  0  0  0  0  0  0  0
    3.2962   -8.2219    0.0000 C   0  0  0  0  0  0  0  0  0  0  0  0
    3.7811   -8.8893    0.0000 C   0  0  0  0  0  0  0  0  0  0  0  0
    3.4456   -9.6430    0.0000 O   0  0  0  0  0  0  0  0  0  0  0  0
    4.6016   -8.8031    0.0000 N   0  0  0  0  0  0  0  0  0  0  0  0
    5.0865   -9.4705    0.0000 C   0  0  0  0  0  0  0  0  0  0  0  0
    5.9070   -9.3843    0.0000 C   0  0  0  0  0  0  0  0  0  0  0  0
    6.2426   -8.6306    0.0000 F   0  0  0  0  0  0  0  0  0  0  0  0
    6.3919  -10.0517    0.0000 C   0  0  0  0  0  0  0  0  0  0  0  0
    6.0564  -10.8054    0.0000 C   0  0  0  0  0  0  0  0  0  0  0  0
    5.2359  -10.8916    0.0000 C   0  0  0  0  0  0  0  0  0  0  0  0
    4.7510  -10.2242    0.0000 C   0  0  0  0  0  0  0  0  0  0  0  0
    3.9305  -10.3104    0.0000 F   0  0  0  0  0  0  0  0  0  0  0  0
    2.4757   -8.3081    0.0000 C   0  0  0  0  0  0  0  0  0  0  0  0
    1.9908   -7.6407    0.0000 C   0  0  0  0  0  0  0  0  0  0  0  0
    1.1703   -7.7269    0.0000 F   0  0  0  0  0  0  0  0  0  0  0  0
    2.0964   -5.4349    0.0000 C   0  0  0  0  0  0  0  0  0  0  0  0
    2.8810   -5.1800    0.0000 O   0  0  0  0  0  0  0  0  0  0  0  0
  1  2  1  0  0  0  0
  2  3  1  0  0  0  0
  3  4  1  0  0  0  0
  3  5  1  0  0  0  0
  5  6  4  0  0  0  0
  6  7  1  0  0  0  0
  6  8  4  0  0  0  0
  8  9  4  0  0  0  0
  9 10  1  0  0  0  0
 10 11  4  0  0  0  0
 11 12  4  0  0  0  0
 12 13  1  0  0  0  0
 13 14  1  0  0  0  0
 14 15  1  0  0  0  0
 14 16  1  0  0  0  0
 16 17  1  0  0  0  0
 16 18  1  0  0  0  0
 16 19  1  0  0  0  0
 12 20  4  0  0  0  0
 20 21  1  0  0  0  0
 21 22  2  0  0  0  0
 21 23  1  0  0  0  0
 23 24  1  0  0  0  0
 24 25  4  0  0  0  0
 25 26  1  0  0  0  0
 25 27  4  0  0  0  0
 27 28  4  0  0  0  0
 28 29  4  0  0  0  0
 29 30  4  0  0  0  0
 24 30  4  0  0  0  0
 30 31  1  0  0  0  0
 20 32  4  0  0  0  0
 32 33  4  0  0  0  0
 10 33  4  0  0  0  0
 33 34  1  0  0  0  0
  9 35  4  0  0  0  0
  5 35  4  0  0  0  0
 35 36  2  0  0  0  0
M  END
> <IC50(uM)>
0.5

> <Outcome>
1.0

> <BindingDB ID>
972571; 1098725

> <BindingDB MonomerID>
470445

> <BindingDB Ligand Name>
4-[4-(butan-2-yl)-3-methyl-5-oxo-4,5-dihydro-1H-1,2,4-triazol-1-yl]-N-(2,6-difluorophenyl)-5-fluoro-2-{[(2S)-1,1,1-trifluoropropan-2-yl]oxy}benzamide, Mixture of Stereoisomers::US10815215, Example 113; 4-[4-(butan-2-yl)-3-methyl-5-oxo-4,5-dihydro-1H-1,2,4-triazol-1-yl]-N-(2,6-difluorophenyl)-5-fluoro-2-{[(2S)-1,1,1-trifluoropropan-2-yl]oxy}benzamide, Mixture of Stereoisomers::US10815215, Example 113::US11130745, Example 113

> <Curation/DataSource>
US Patent

> <Article DOI>
?

> <PMID>
?

> <Patent Number>
US10815215; US11130745

> <Authors>
Gradl, SN; Nguyen, D; Eis, K; Gunther, J; Stellfeld, T; Janzer, A; Christian, S; Muller, T; Sheikh, SE; Zhou, HJ; Zhao, C; Sykes, DB; Ferrara, SJ; Liu, K; Krober, M; Merz, C; Niehues, M; Schafer, M; Zimmermann, K; Nising, CF; Gradl, SN; Nguyen, D; Eis, K; Gunther, J; Stellfeld, T; Janzer, A; Christian, S; Muller, T; Sheikh, SE; Sykes, DB; Ferrara, SJ; Krober, M; Merz, C; Niehues, M; Schafer, M; Zimmermann, K; Nising, CF

> <Link to Ligand in BindingDB>
http://www.bindingdb.org/bind/chemsearch/marvin/MolStructure.jsp?monomerid=470445

> <Link to Ligand-Target Pair in BindingDB>
http://www.bindingdb.org/jsp/dbsearch/PrimarySearch_ki.jsp?energyterm=kJ/mole&tag=r21&monomerid=470445&enzyme=Dihydroorotate+dehydrogenase&column=ki&startPg=0&Increment=50&submit=Search

> <PubChem CID>
134470062

> <PubChem SID>
441609622

$$$$

  Mrv2115 07222212352D          

 26 28  0  0  0  0            999 V2000
    0.0000   -2.4750    0.0000 N   0  0  0  0  0  0  0  0  0  0  0  0
    0.0000   -1.6500    0.0000 C   0  0  0  0  0  0  0  0  0  0  0  0
   -0.7145   -1.2375    0.0000 O   0  0  0  0  0  0  0  0  0  0  0  0
    0.7145   -1.2375    0.0000 C   0  0  0  0  0  0  0  0  0  0  0  0
    0.7145   -0.4125    0.0000 C   0  0  0  0  0  0  0  0  0  0  0  0
    1.4289    0.0000    0.0000 C   0  0  0  0  0  0  0  0  0  0  0  0
    2.1434   -0.4125    0.0000 C   0  0  0  0  0  0  0  0  0  0  0  0
    2.8579    0.0000    0.0000 C   0  0  0  0  0  0  0  0  0  0  0  0
    3.5724   -0.4125    0.0000 C   0  0  0  0  0  0  0  0  0  0  0  0
    4.2868   -0.0000    0.0000 C   0  0  0  0  0  0  0  0  0  0  0  0
    4.2868    0.8250    0.0000 C   0  0  0  0  0  0  0  0  0  0  0  0
    5.0013    1.2375    0.0000 C   0  0  0  0  0  0  0  0  0  0  0  0
    5.0013    2.0625    0.0000 C   0  0  0  0  0  0  0  0  0  0  0  0
    4.2868    2.4750    0.0000 C   0  0  0  0  0  0  0  0  0  0  0  0
    4.2868    3.3000    0.0000 O   0  0  0  0  0  0  0  0  0  0  0  0
    3.5724    2.0625    0.0000 O   0  0  0  0  0  0  0  0  0  0  0  0
    5.7158    2.4750    0.0000 N   0  0  0  0  0  0  0  0  0  0  0  0
    6.4302    2.0625    0.0000 C   0  0  0  0  0  0  0  0  0  0  0  0
    7.1447    2.4750    0.0000 O   0  0  0  0  0  0  0  0  0  0  0  0
    6.4302    1.2375    0.0000 N   0  0  0  0  0  0  0  0  0  0  0  0
    5.7158    0.8250    0.0000 C   0  0  0  0  0  0  0  0  0  0  0  0
    5.7158   -0.0000    0.0000 O   0  0  0  0  0  0  0  0  0  0  0  0
    3.5724   -1.2375    0.0000 C   0  0  0  0  0  0  0  0  0  0  0  0
    2.8579   -1.6500    0.0000 C   0  0  0  0  0  0  0  0  0  0  0  0
    2.1434   -1.2375    0.0000 C   0  0  0  0  0  0  0  0  0  0  0  0
    1.4289   -1.6500    0.0000 C   0  0  0  0  0  0  0  0  0  0  0  0
  1  2  1  0  0  0  0
  2  3  2  0  0  0  0
  2  4  1  0  0  0  0
  4  5  4  0  0  0  0
  5  6  4  0  0  0  0
  6  7  4  0  0  0  0
  7  8  4  0  0  0  0
  8  9  4  0  0  0  0
  9 10  1  0  0  0  0
 10 11  1  0  0  0  0
 11 12  1  0  0  0  0
 12 13  4  0  0  0  0
 13 14  1  0  0  0  0
 14 15  2  0  0  0  0
 14 16  1  0  0  0  0
 13 17  4  0  0  0  0
 17 18  4  0  0  0  0
 18 19  2  0  0  0  0
 18 20  4  0  0  0  0
 20 21  4  0  0  0  0
 12 21  4  0  0  0  0
 21 22  2  0  0  0  0
  9 23  4  0  0  0  0
 23 24  4  0  0  0  0
 24 25  4  0  0  0  0
  7 25  4  0  0  0  0
 25 26  4  0  0  0  0
  4 26  4  0  0  0  0
M  STY  2   1 DAT   2 DAT
M  SAL   1  1  17
M  SDT   1 MRV_IMPLICIT_H                                        
M  SDD   1     0.6482   -0.4125    DR    ALL  0       0  
M  SED   1 IMPL_H1
M  SAL   2  1  20
M  SDT   2 MRV_IMPLICIT_H                                        
M  SDD   2     0.5304   -0.4125    DR    ALL  0       0  
M  SED   2 IMPL_H1
M  END
> <IC50(uM)>
5.0

> <Outcome>
0.0

> <BindingDB ID>
50555377

> <BindingDB MonomerID>
50212057

> <BindingDB Ligand Name>
CHEMBL3979926

> <Curation/DataSource>
ChEMBL

> <Article DOI>
10.1016/j.bmc.2017.01.009

> <PMID>
28118956

> <Patent Number>
?

> <Authors>
Inaoka, DK; Iida, M; Hashimoto, S; Tabuchi, T; Kuranaga, T; Balogun, EO; Honma, T; Tanaka, A; Harada, S; Nara, T; Kita, K; Inoue, M

> <Link to Ligand in BindingDB>
http://www.bindingdb.org/bind/chemsearch/marvin/MolStructure.jsp?monomerid=50212057

> <Link to Ligand-Target Pair in BindingDB>
http://www.bindingdb.org/jsp/dbsearch/PrimarySearch_ki.jsp?energyterm=kJ/mole&tag=r21&monomerid=50212057&enzyme=Dihydroorotate+dehydrogenase&column=ki&startPg=0&Increment=50&submit=Search

> <PubChem CID>
134152327

> <PubChem SID>
375983087

$$$$

  Mrv2115 07222212352D          

 30 34  0  0  0  0            999 V2000
    0.0000   -1.6500    0.0000 C   0  0  0  0  0  0  0  0  0  0  0  0
    0.7145   -1.2375    0.0000 C   0  0  0  0  0  0  0  0  0  0  0  0
    0.7145   -0.4125    0.0000 C   0  0  0  0  0  0  0  0  0  0  0  0
    0.0000    0.0000    0.0000 C   0  0  0  0  0  0  0  0  0  0  0  0
   -0.7145   -0.4125    0.0000 C   0  0  0  0  0  0  0  0  0  0  0  0
   -1.4289    0.0000    0.0000 C   0  0  0  0  0  0  0  0  0  0  0  0
   -1.4289    0.8250    0.0000 C   0  0  0  0  0  0  0  0  0  0  0  0
   -2.1434    1.2375    0.0000 C   0  0  0  0  0  0  0  0  0  0  0  0
   -2.8579    0.8250    0.0000 C   0  0  0  0  0  0  0  0  0  0  0  0
   -3.5724    1.2375    0.0000 C   0  0  0  0  0  0  0  0  0  0  0  0
   -3.5724    2.0625    0.0000 C   0  0  0  0  0  0  0  0  0  0  0  0
   -2.8579    2.4750    0.0000 C   0  0  0  0  0  0  0  0  0  0  0  0
   -2.1434    2.0625    0.0000 C   0  0  0  0  0  0  0  0  0  0  0  0
   -1.4289    2.4750    0.0000 F   0  0  0  0  0  0  0  0  0  0  0  0
   -0.7145    1.2375    0.0000 C   0  0  0  0  0  0  0  0  0  0  0  0
    0.0000    0.8250    0.0000 C   0  0  0  0  0  0  0  0  0  0  0  0
    1.4289    0.0000    0.0000 N   0  0  0  0  0  0  0  0  0  0  0  0
    2.1434   -0.4125    0.0000 C   0  0  0  0  0  0  0  0  0  0  0  0
    2.8579    0.0000    0.0000 C   0  0  0  0  0  0  0  0  0  0  0  0
    3.5724   -0.4125    0.0000 C   0  0  0  0  0  0  0  0  0  0  0  0
    3.5724   -1.2375    0.0000 C   0  0  0  0  0  0  0  0  0  0  0  0
    4.2868   -1.6500    0.0000 F   0  0  0  0  0  0  0  0  0  0  0  0
    2.8579   -1.6500    0.0000 C   0  0  0  0  0  0  0  0  0  0  0  0
    2.1434   -1.2375    0.0000 C   0  0  0  0  0  0  0  0  0  0  0  0
    1.4289   -1.6500    0.0000 C   0  0  0  0  0  0  0  0  0  0  0  0
    1.4289   -2.4750    0.0000 C   0  0  0  0  0  0  0  0  0  0  0  0
    2.0964   -2.9599    0.0000 N   0  0  0  0  0  0  0  0  0  0  0  0
    1.8414   -3.7445    0.0000 N   0  0  0  0  0  0  0  0  0  0  0  0
    1.0164   -3.7445    0.0000 N   0  0  0  0  0  0  0  0  0  0  0  0
    0.7615   -2.9599    0.0000 N   0  0  0  0  0  0  0  0  0  0  0  0
  1  2  1  0  0  0  0
  2  3  4  0  0  0  0
  3  4  1  0  0  0  0
  4  5  4  0  0  0  0
  5  6  4  0  0  0  0
  6  7  4  0  0  0  0
  7  8  1  0  0  0  0
  8  9  4  0  0  0  0
  9 10  4  0  0  0  0
 10 11  4  0  0  0  0
 11 12  4  0  0  0  0
 12 13  4  0  0  0  0
  8 13  4  0  0  0  0
 13 14  1  0  0  0  0
  7 15  4  0  0  0  0
 15 16  4  0  0  0  0
  4 16  4  0  0  0  0
  3 17  4  0  0  0  0
 17 18  4  0  0  0  0
 18 19  4  0  0  0  0
 19 20  4  0  0  0  0
 20 21  4  0  0  0  0
 21 22  1  0  0  0  0
 21 23  4  0  0  0  0
 23 24  4  0  0  0  0
 18 24  4  0  0  0  0
 24 25  4  0  0  0  0
  2 25  4  0  0  0  0
 25 26  1  0  0  0  0
 26 27  4  0  0  0  0
 27 28  4  0  0  0  0
 28 29  4  0  0  0  0
 29 30  4  0  0  0  0
 26 30  4  0  0  0  0
M  STY  1   1 DAT
M  SAL   1  1  30
M  SDT   1 MRV_IMPLICIT_H                                        
M  SDD   1     0.5304   -0.4125    DR    ALL  0       0  
M  SED   1 IMPL_H1
M  END
> <IC50(uM)>
0.223

> <Outcome>
1.0

> <BindingDB ID>
51370191

> <BindingDB MonomerID>
50554019

> <BindingDB Ligand Name>
CHEMBL4788745

> <Curation/DataSource>
ChEMBL

> <Article DOI>
?

> <PMID>
33007394

> <Patent Number>
?

> <Authors>
DeRatt, LG; Christine Pietsch, E; Tanner, A; Shaffer, P; Jacoby, E; Wang, W; Kazmi, F; Zhang, X; Attar, RM; Edwards, JP; Kuduk, SD

> <Link to Ligand in BindingDB>
http://www.bindingdb.org/bind/chemsearch/marvin/MolStructure.jsp?monomerid=50554019

> <Link to Ligand-Target Pair in BindingDB>
http://www.bindingdb.org/jsp/dbsearch/PrimarySearch_ki.jsp?energyterm=kJ/mole&tag=r21&monomerid=50554019&enzyme=Dihydroorotate+dehydrogenase&column=ki&startPg=0&Increment=50&submit=Search

> <PubChem CID>
162668530

> <PubChem SID>
461692787

$$$$

  Mrv2115 07222212352D          

 27 30  0  0  0  0            999 V2000
    4.0668    2.3479    0.0000 C   0  0  0  0  0  0  0  0  0  0  0  0
    3.3523    1.9354    0.0000 C   0  0  0  0  0  0  0  0  0  0  0  0
    3.3523    1.1104    0.0000 C   0  0  0  0  0  0  0  0  0  0  0  0
    2.6378    0.6979    0.0000 C   0  0  0  0  0  0  0  0  0  0  0  0
    2.6378   -0.1271    0.0000 C   0  0  0  0  0  0  0  0  0  0  0  0
    1.9233   -0.5396    0.0000 O   0  0  0  0  0  0  0  0  0  0  0  0
    3.3523   -0.5396    0.0000 O   0  0  0  0  0  0  0  0  0  0  0  0
    1.9233    1.1104    0.0000 C   0  0  0  0  0  0  0  0  0  0  0  0
    1.1387    0.8555    0.0000 N   0  0  0  0  0  0  0  0  0  0  0  0
    0.6538    1.5229    0.0000 C   0  0  0  0  0  0  0  0  0  0  0  0
   -0.1712    1.5229    0.0000 C   0  0  0  0  0  0  0  0  0  0  0  0
   -0.5837    0.8085    0.0000 C   0  0  0  0  0  0  0  0  0  0  0  0
   -1.4087    0.8085    0.0000 C   0  0  0  0  0  0  0  0  0  0  0  0
   -1.8212    1.5229    0.0000 C   0  0  0  0  0  0  0  0  0  0  0  0
   -2.6462    1.5229    0.0000 C   0  0  0  0  0  0  0  0  0  0  0  0
   -3.0587    0.8085    0.0000 C   0  0  0  0  0  0  0  0  0  0  0  0
   -3.8837    0.8085    0.0000 C   0  0  0  0  0  0  0  0  0  0  0  0
   -4.2962    1.5229    0.0000 C   0  0  0  0  0  0  0  0  0  0  0  0
   -5.1212    1.5229    0.0000 F   0  0  0  0  0  0  0  0  0  0  0  0
   -3.8837    2.2374    0.0000 C   0  0  0  0  0  0  0  0  0  0  0  0
   -3.0587    2.2374    0.0000 C   0  0  0  0  0  0  0  0  0  0  0  0
   -2.6462    2.9519    0.0000 F   0  0  0  0  0  0  0  0  0  0  0  0
   -1.4087    2.2374    0.0000 C   0  0  0  0  0  0  0  0  0  0  0  0
   -0.5837    2.2374    0.0000 C   0  0  0  0  0  0  0  0  0  0  0  0
    1.1387    2.1904    0.0000 N   0  0  0  0  0  0  0  0  0  0  0  0
    1.9233    1.9354    0.0000 C   0  0  0  0  0  0  0  0  0  0  0  0
    2.6378    2.3479    0.0000 C   0  0  0  0  0  0  0  0  0  0  0  0
  1  2  1  0  0  0  0
  2  3  4  0  0  0  0
  3  4  4  0  0  0  0
  4  5  1  0  0  0  0
  5  6  2  0  0  0  0
  5  7  1  0  0  0  0
  4  8  4  0  0  0  0
  8  9  4  0  0  0  0
  9 10  4  0  0  0  0
 10 11  1  0  0  0  0
 11 12  4  0  0  0  0
 12 13  4  0  0  0  0
 13 14  4  0  0  0  0
 14 15  1  0  0  0  0
 15 16  4  0  0  0  0
 16 17  4  0  0  0  0
 17 18  4  0  0  0  0
 18 19  1  0  0  0  0
 18 20  4  0  0  0  0
 20 21  4  0  0  0  0
 15 21  4  0  0  0  0
 21 22  1  0  0  0  0
 14 23  4  0  0  0  0
 23 24  4  0  0  0  0
 11 24  4  0  0  0  0
 10 25  4  0  0  0  0
 25 26  4  0  0  0  0
  8 26  4  0  0  0  0
 26 27  4  0  0  0  0
  2 27  4  0  0  0  0
M  STY  1   1 DAT
M  SAL   1  1   9
M  SDT   1 MRV_IMPLICIT_H                                        
M  SDD   1     0.5304   -0.4125    DR    ALL  0       0  
M  SED   1 IMPL_H1
M  END
> <IC50(uM)>
1.42

> <Outcome>
0.0

> <BindingDB ID>
297763

> <BindingDB MonomerID>
155419

> <BindingDB Ligand Name>
US9006454, I33

> <Curation/DataSource>
US Patent

> <Article DOI>
?

> <PMID>
?

> <Patent Number>
US9006454

> <Authors>
Thunuguntla, SS; Subramanya, H; Kunnam, SR; Sanivaru Vijay, SR; Bingi, C; Kusanur, R; Schwarz, M; Arlt, M

> <Link to Ligand in BindingDB>
http://www.bindingdb.org/bind/chemsearch/marvin/MolStructure.jsp?monomerid=155419

> <Link to Ligand-Target Pair in BindingDB>
http://www.bindingdb.org/jsp/dbsearch/PrimarySearch_ki.jsp?energyterm=kJ/mole&tag=r21&monomerid=155419&enzyme=Dihydroorotate+dehydrogenase&column=ki&startPg=0&Increment=50&submit=Search

> <PubChem CID>
46946192

> <PubChem SID>
253658356

$$$$

  Mrv2115 07222212352D          

 22 23  0  0  0  0            999 V2000
    2.1434   -1.2375    0.0000 N   0  0  0  0  0  0  0  0  0  0  0  0
    1.4289   -1.6500    0.0000 C   0  0  0  0  0  0  0  0  0  0  0  0
    0.7145   -1.2375    0.0000 O   0  0  0  0  0  0  0  0  0  0  0  0
    1.4289   -2.4750    0.0000 C   0  0  0  0  0  0  0  0  0  0  0  0
    2.1434   -2.8875    0.0000 C   0  0  0  0  0  0  0  0  0  0  0  0
    2.1434   -3.7125    0.0000 C   0  0  0  0  0  0  0  0  0  0  0  0
    1.4289   -4.1250    0.0000 C   0  0  0  0  0  0  0  0  0  0  0  0
    0.7145   -3.7125    0.0000 C   0  0  0  0  0  0  0  0  0  0  0  0
    0.0000   -4.1250    0.0000 C   0  0  0  0  0  0  0  0  0  0  0  0
    0.0000   -4.9500    0.0000 C   0  0  0  0  0  0  0  0  0  0  0  0
   -0.7145   -5.3625    0.0000 C   0  0  0  0  0  0  0  0  0  0  0  0
   -0.7145   -6.1875    0.0000 C   0  0  0  0  0  0  0  0  0  0  0  0
   -0.0000   -6.6000    0.0000 C   0  0  0  0  0  0  0  0  0  0  0  0
   -0.0000   -7.4250    0.0000 O   0  0  0  0  0  0  0  0  0  0  0  0
    0.7145   -6.1875    0.0000 O   0  0  0  0  0  0  0  0  0  0  0  0
   -1.4289   -6.6000    0.0000 N   0  0  0  0  0  0  0  0  0  0  0  0
   -2.1434   -6.1875    0.0000 C   0  0  0  0  0  0  0  0  0  0  0  0
   -2.8579   -6.6000    0.0000 O   0  0  0  0  0  0  0  0  0  0  0  0
   -2.1434   -5.3625    0.0000 N   0  0  0  0  0  0  0  0  0  0  0  0
   -1.4289   -4.9500    0.0000 C   0  0  0  0  0  0  0  0  0  0  0  0
   -1.4289   -4.1250    0.0000 O   0  0  0  0  0  0  0  0  0  0  0  0
    0.7145   -2.8875    0.0000 C   0  0  0  0  0  0  0  0  0  0  0  0
  1  2  1  0  0  0  0
  2  3  2  0  0  0  0
  2  4  1  0  0  0  0
  4  5  4  0  0  0  0
  5  6  4  0  0  0  0
  6  7  4  0  0  0  0
  7  8  4  0  0  0  0
  8  9  1  0  0  0  0
  9 10  1  0  0  0  0
 10 11  1  0  0  0  0
 11 12  4  0  0  0  0
 12 13  1  0  0  0  0
 13 14  2  0  0  0  0
 13 15  1  0  0  0  0
 12 16  4  0  0  0  0
 16 17  4  0  0  0  0
 17 18  2  0  0  0  0
 17 19  4  0  0  0  0
 19 20  4  0  0  0  0
 11 20  4  0  0  0  0
 20 21  2  0  0  0  0
  8 22  4  0  0  0  0
  4 22  4  0  0  0  0
M  STY  2   1 DAT   2 DAT
M  SAL   1  1  16
M  SDT   1 MRV_IMPLICIT_H                                        
M  SDD   1     0.6482   -0.4125    DR    ALL  0       0  
M  SED   1 IMPL_H1
M  SAL   2  1  19
M  SDT   2 MRV_IMPLICIT_H                                        
M  SDD   2     0.5304   -0.4125    DR    ALL  0       0  
M  SED   2 IMPL_H1
M  END
> <IC50(uM)>
1.0

> <Outcome>
1.0

> <BindingDB ID>
50555278

> <BindingDB MonomerID>
50211711

> <BindingDB Ligand Name>
CHEMBL3916433

> <Curation/DataSource>
ChEMBL

> <Article DOI>
10.1016/j.bmc.2017.01.009

> <PMID>
28118956

> <Patent Number>
?

> <Authors>
Inaoka, DK; Iida, M; Hashimoto, S; Tabuchi, T; Kuranaga, T; Balogun, EO; Honma, T; Tanaka, A; Harada, S; Nara, T; Kita, K; Inoue, M

> <Link to Ligand in BindingDB>
http://www.bindingdb.org/bind/chemsearch/marvin/MolStructure.jsp?monomerid=50211711

> <Link to Ligand-Target Pair in BindingDB>
http://www.bindingdb.org/jsp/dbsearch/PrimarySearch_ki.jsp?energyterm=kJ/mole&tag=r21&monomerid=50211711&enzyme=Dihydroorotate+dehydrogenase&column=ki&startPg=0&Increment=50&submit=Search

> <PubChem CID>
134142176

> <PubChem SID>
375983054

$$$$

  Mrv2115 07222212352D          

 22 23  0  0  0  0            999 V2000
    0.6955   -5.3280    0.0000 C   0  0  0  0  0  0  0  0  0  0  0  0
    1.4100   -5.7405    0.0000 C   0  0  0  0  0  0  0  0  0  0  0  0
    2.1245   -5.3280    0.0000 C   0  0  0  0  0  0  0  0  0  0  0  0
    2.8389   -5.7405    0.0000 C   0  0  0  0  0  0  0  0  0  0  0  0
    3.5534   -5.3280    0.0000 O   0  0  0  0  0  0  0  0  0  0  0  0
    4.2679   -5.7405    0.0000 C   0  0  0  0  0  0  0  0  0  0  0  0
    4.2679   -6.5655    0.0000 O   0  0  0  0  0  0  0  0  0  0  0  0
    4.9823   -5.3280    0.0000 C   0  0  0  0  0  0  0  0  0  0  0  0
    5.0686   -4.5075    0.0000 C   0  0  0  0  0  0  0  0  0  0  0  0
    4.4555   -3.9555    0.0000 O   0  0  0  0  0  0  0  0  0  0  0  0
    5.8756   -4.3360    0.0000 C   0  0  0  0  0  0  0  0  0  0  0  0
    6.2881   -5.0505    0.0000 S   0  0  0  0  0  0  0  0  0  0  0  0
    5.7360   -5.6636    0.0000 C   0  0  0  0  0  0  0  0  0  0  0  0
    5.9076   -6.4706    0.0000 N   0  0  0  0  0  0  0  0  0  0  0  0
    6.6922   -6.7255    0.0000 C   0  0  0  0  0  0  0  0  0  0  0  0
    7.3053   -6.1735    0.0000 C   0  0  0  0  0  0  0  0  0  0  0  0
    8.0899   -6.4284    0.0000 C   0  0  0  0  0  0  0  0  0  0  0  0
    8.2614   -7.2354    0.0000 C   0  0  0  0  0  0  0  0  0  0  0  0
    9.0460   -7.4903    0.0000 C   0  0  0  0  0  0  0  0  0  0  0  0
    7.6483   -7.7874    0.0000 C   0  0  0  0  0  0  0  0  0  0  0  0
    7.8198   -8.5944    0.0000 C   0  0  0  0  0  0  0  0  0  0  0  0
    6.8637   -7.5325    0.0000 C   0  0  0  0  0  0  0  0  0  0  0  0
  1  2  1  0  0  0  0
  2  3  1  0  0  0  0
  3  4  1  0  0  0  0
  4  5  1  0  0  0  0
  5  6  1  0  0  0  0
  6  7  2  0  0  0  0
  6  8  1  0  0  0  0
  8  9  4  0  0  0  0
  9 10  1  0  0  0  0
  9 11  4  0  0  0  0
 11 12  4  0  0  0  0
 12 13  4  0  0  0  0
  8 13  4  0  0  0  0
 13 14  1  0  0  0  0
 14 15  1  0  0  0  0
 15 16  4  0  0  0  0
 16 17  4  0  0  0  0
 17 18  4  0  0  0  0
 18 19  1  0  0  0  0
 18 20  4  0  0  0  0
 20 21  1  0  0  0  0
 20 22  4  0  0  0  0
 15 22  4  0  0  0  0
M  END
> <IC50(uM)>
50.0

> <Outcome>
0.0

> <BindingDB ID>
51079161

> <BindingDB MonomerID>
50441269

> <BindingDB Ligand Name>
CHEMBL2431480

> <Curation/DataSource>
ChEMBL

> <Article DOI>
10.1021/jm400938g

> <PMID>
24073986

> <Patent Number>
?

> <Authors>
Xu, M; Zhu, J; Diao, Y; Zhou, H; Ren, X; Sun, D; Huang, J; Han, D; Zhao, Z; Zhu, L; Xu, Y; Li, H

> <Link to Ligand in BindingDB>
http://www.bindingdb.org/bind/chemsearch/marvin/MolStructure.jsp?monomerid=50441269

> <Link to Ligand-Target Pair in BindingDB>
http://www.bindingdb.org/jsp/dbsearch/PrimarySearch_ki.jsp?energyterm=kJ/mole&tag=r21&monomerid=50441269&enzyme=Dihydroorotate+dehydrogenase&column=ki&startPg=0&Increment=50&submit=Search

> <PubChem CID>
91898830

> <PubChem SID>
175453586

$$$$

  Mrv2115 07222212352D          

 34 37  0  0  0  0            999 V2000
   -0.6284    2.1599    0.0000 C   0  0  0  0  0  0  0  0  0  0  0  0
   -1.4534    2.1599    0.0000 C   0  0  0  0  0  0  0  0  0  0  0  0
   -1.8659    1.4455    0.0000 C   0  0  0  0  0  0  0  0  0  0  0  0
   -2.6909    1.4455    0.0000 C   0  0  0  0  0  0  0  0  0  0  0  0
   -3.1034    2.1599    0.0000 C   0  0  0  0  0  0  0  0  0  0  0  0
   -3.1034    0.7310    0.0000 O   0  0  0  0  0  0  0  0  0  0  0  0
   -2.6909    0.0165    0.0000 C   0  0  0  0  0  0  0  0  0  0  0  0
   -1.8659    0.0165    0.0000 C   0  0  0  0  0  0  0  0  0  0  0  0
   -1.4534   -0.6979    0.0000 C   0  0  0  0  0  0  0  0  0  0  0  0
   -0.6284   -0.6979    0.0000 N   0  0  0  0  0  0  0  0  0  0  0  0
   -0.1435   -1.3654    0.0000 N   0  0  0  0  0  0  0  0  0  0  0  0
    0.6411   -1.1104    0.0000 C   0  0  0  0  0  0  0  0  0  0  0  0
    0.6411   -0.2854    0.0000 N   0  0  0  0  0  0  0  0  0  0  0  0
   -0.1435   -0.0305    0.0000 C   0  0  0  0  0  0  0  0  0  0  0  0
   -0.3984    0.7541    0.0000 O   0  0  0  0  0  0  0  0  0  0  0  0
    1.3556    0.1271    0.0000 C   0  0  0  0  0  0  0  0  0  0  0  0
    2.0701   -0.2854    0.0000 C   0  0  0  0  0  0  0  0  0  0  0  0
    2.0701   -1.1104    0.0000 C   0  0  0  0  0  0  0  0  0  0  0  0
    1.3556   -1.5229    0.0000 C   0  0  0  0  0  0  0  0  0  0  0  0
   -1.8659   -1.4124    0.0000 C   0  0  0  0  0  0  0  0  0  0  0  0
   -1.4534   -2.1269    0.0000 F   0  0  0  0  0  0  0  0  0  0  0  0
   -2.6909   -1.4124    0.0000 C   0  0  0  0  0  0  0  0  0  0  0  0
   -3.1034   -0.6979    0.0000 C   0  0  0  0  0  0  0  0  0  0  0  0
   -3.9284   -0.6979    0.0000 C   0  0  0  0  0  0  0  0  0  0  0  0
   -4.3409    0.0165    0.0000 O   0  0  0  0  0  0  0  0  0  0  0  0
   -4.3409   -1.4124    0.0000 N   0  0  0  0  0  0  0  0  0  0  0  0
   -3.9284   -2.1269    0.0000 C   0  0  0  0  0  0  0  0  0  0  0  0
   -3.1034   -2.1269    0.0000 C   0  0  0  0  0  0  0  0  0  0  0  0
   -2.6909   -2.8414    0.0000 C   0  0  0  0  0  0  0  0  0  0  0  0
   -3.1034   -3.5558    0.0000 N   0  0  0  0  0  0  0  0  0  0  0  0
   -2.6909   -4.2703    0.0000 C   0  0  0  0  0  0  0  0  0  0  0  0
   -3.9284   -3.5558    0.0000 C   0  0  0  0  0  0  0  0  0  0  0  0
   -4.3409   -4.2703    0.0000 O   0  0  0  0  0  0  0  0  0  0  0  0
   -4.3409   -2.8414    0.0000 C   0  0  0  0  0  0  0  0  0  0  0  0
  1  2  1  0  0  0  0
  2  3  1  0  0  0  0
  3  4  1  0  0  0  0
  4  5  1  0  0  0  0
  4  6  1  0  0  0  0
  6  7  1  0  0  0  0
  7  8  4  0  0  0  0
  8  9  4  0  0  0  0
  9 10  1  0  0  0  0
 10 11  4  0  0  0  0
 11 12  4  0  0  0  0
 12 13  4  0  0  0  0
 13 14  4  0  0  0  0
 10 14  4  0  0  0  0
 14 15  2  0  0  0  0
 13 16  1  0  0  0  0
 16 17  1  0  0  0  0
 17 18  1  0  0  0  0
 18 19  1  0  0  0  0
 12 19  1  0  0  0  0
  9 20  4  0  0  0  0
 20 21  1  0  0  0  0
 20 22  4  0  0  0  0
 22 23  4  0  0  0  0
  7 23  4  0  0  0  0
 23 24  1  0  0  0  0
 24 25  2  0  0  0  0
 24 26  1  0  0  0  0
 26 27  1  0  0  0  0
 27 28  1  0  0  0  0
 28 29  1  0  0  0  0
 29 30  1  0  0  0  0
 30 31  1  0  0  0  0
 30 32  1  0  0  0  0
 32 33  2  0  0  0  0
 32 34  1  0  0  0  0
 27 34  1  0  0  0  0
M  END
> <IC50(uM)>
8.0

> <Outcome>
0.0

> <BindingDB ID>
1020398

> <BindingDB MonomerID>
490354

> <BindingDB Ligand Name>
5-fluoro-N-(1-methyl-2-oxopiperidin-(4R,S)-4-yl)-4-(3-oxo-5,6,7,8-tetrahydro[1,2,4]triazolo[4,3-a]pyridin-2(3H)-yl)-2-[(2S)-pentan-2-yloxy]benzamide Mixture of Diastereomers::US10968216, Example 22

> <Curation/DataSource>
US Patent

> <Article DOI>
?

> <PMID>
?

> <Patent Number>
US10968216

> <Authors>
Gradl, SN; Nguyen, D; Eis, K; Gunther, J; Stellfeld, T; Janzer, A; Christian, S; Mueller, T; Sheikh, SE; Zhou, HJ; Zhao, C; Sykes, DB; Ferrara, SJ; Liu, K; Herbert, SA; Merz, C; Niehues, M; Nising, CF; Schafer, M; Zimmermann, K; Knablein, J; Thede, K; Faupel, T

> <Link to Ligand in BindingDB>
http://www.bindingdb.org/bind/chemsearch/marvin/MolStructure.jsp?monomerid=490354

> <Link to Ligand-Target Pair in BindingDB>
http://www.bindingdb.org/jsp/dbsearch/PrimarySearch_ki.jsp?energyterm=kJ/mole&tag=r21&monomerid=490354&enzyme=Dihydroorotate+dehydrogenase&column=ki&startPg=0&Increment=50&submit=Search

> <PubChem CID>
134473889

> <PubChem SID>
447117081

$$$$

  Mrv2115 07222212352D          

 28 31  0  0  0  0            999 V2000
    5.0013   10.4401    0.0000 C   0  0  0  0  0  0  0  0  0  0  0  0
    4.2868   10.0276    0.0000 O   0  0  0  0  0  0  0  0  0  0  0  0
    4.2868    9.2026    0.0000 C   0  0  0  0  0  0  0  0  0  0  0  0
    5.0013    8.7901    0.0000 C   0  0  0  0  0  0  0  0  0  0  0  0
    5.0013    7.9651    0.0000 C   0  0  0  0  0  0  0  0  0  0  0  0
    4.2868    7.5526    0.0000 C   0  0  0  0  0  0  0  0  0  0  0  0
    3.5724    7.9651    0.0000 C   0  0  0  0  0  0  0  0  0  0  0  0
    2.8579    7.5526    0.0000 C   0  0  0  0  0  0  0  0  0  0  0  0
    2.1434    7.9651    0.0000 C   0  0  0  0  0  0  0  0  0  0  0  0
    1.4289    7.5526    0.0000 C   0  0  0  0  0  0  0  0  0  0  0  0
    1.4289    6.7276    0.0000 C   0  0  0  0  0  0  0  0  0  0  0  0
    0.7145    6.3151    0.0000 N   0  0  0  0  0  0  0  0  0  0  0  0
    0.7145    5.4901    0.0000 C   0  0  0  0  0  0  0  0  0  0  0  0
    1.4289    5.0776    0.0000 N   0  0  0  0  0  0  0  0  0  0  0  0
    1.4289    4.2526    0.0000 C   0  0  0  0  0  0  0  0  0  0  0  0
    0.7145    3.8401    0.0000 C   0  0  0  0  0  0  0  0  0  0  0  0
    0.7145    3.0151    0.0000 C   0  0  0  0  0  0  0  0  0  0  0  0
    1.1270    2.3007    0.0000 C   0  0  0  0  0  0  0  0  0  0  0  0
    0.3020    2.3007    0.0000 C   0  0  0  0  0  0  0  0  0  0  0  0
    0.0000    4.2526    0.0000 C   0  0  0  0  0  0  0  0  0  0  0  0
    0.0000    5.0776    0.0000 C   0  0  0  0  0  0  0  0  0  0  0  0
   -0.7145    5.4901    0.0000 C   0  0  0  0  0  0  0  0  0  0  0  0
   -0.7145    6.3151    0.0000 O   0  0  0  0  0  0  0  0  0  0  0  0
   -1.4289    5.0776    0.0000 O   0  0  0  0  0  0  0  0  0  0  0  0
    2.1434    6.3151    0.0000 C   0  0  0  0  0  0  0  0  0  0  0  0
    2.1434    5.4901    0.0000 F   0  0  0  0  0  0  0  0  0  0  0  0
    2.8579    6.7276    0.0000 C   0  0  0  0  0  0  0  0  0  0  0  0
    3.5724    8.7901    0.0000 C   0  0  0  0  0  0  0  0  0  0  0  0
  1  2  1  0  0  0  0
  2  3  1  0  0  0  0
  3  4  4  0  0  0  0
  4  5  4  0  0  0  0
  5  6  4  0  0  0  0
  6  7  4  0  0  0  0
  7  8  1  0  0  0  0
  8  9  4  0  0  0  0
  9 10  4  0  0  0  0
 10 11  4  0  0  0  0
 11 12  1  0  0  0  0
 12 13  1  0  0  0  0
 13 14  4  0  0  0  0
 14 15  4  0  0  0  0
 15 16  4  0  0  0  0
 16 17  1  0  0  0  0
 17 18  1  0  0  0  0
 18 19  1  0  0  0  0
 17 19  1  0  0  0  0
 16 20  4  0  0  0  0
 20 21  4  0  0  0  0
 13 21  4  0  0  0  0
 21 22  1  0  0  0  0
 22 23  2  0  0  0  0
 22 24  1  0  0  0  0
 11 25  4  0  0  0  0
 25 26  1  0  0  0  0
 25 27  4  0  0  0  0
  8 27  4  0  0  0  0
  7 28  4  0  0  0  0
  3 28  4  0  0  0  0
M  END
> <IC50(uM)>
0.033

> <Outcome>
1.0

> <BindingDB ID>
51186840; 246910

> <BindingDB MonomerID>
119817

> <BindingDB Ligand Name>
US8691852, 34

> <Curation/DataSource>
ChEMBL; US Patent

> <Article DOI>
10.1007/s00044-011-9837-4; ?

> <PMID>
?

> <Patent Number>
?; US8691852

> <Authors>
n/a; Castro Palomino Laria, JC; Erra Sola, M; Lozoya Toribio, ME; Navarro Romero, E

> <Link to Ligand in BindingDB>
http://www.bindingdb.org/bind/chemsearch/marvin/MolStructure.jsp?monomerid=119817

> <Link to Ligand-Target Pair in BindingDB>
http://www.bindingdb.org/jsp/dbsearch/PrimarySearch_ki.jsp?energyterm=kJ/mole&tag=r21&monomerid=119817&enzyme=Dihydroorotate+dehydrogenase&column=ki&startPg=0&Increment=50&submit=Search

> <PubChem CID>
24988290

> <PubChem SID>
220230611

$$$$

  Mrv2115 07222212352D          

 24 26  0  0  0  0            999 V2000
    7.8592    1.2375    0.0000 O   0  0  0  0  0  0  0  0  0  0  0  0
    7.8592    0.4125    0.0000 C   0  0  0  0  0  0  0  0  0  0  0  0
    7.1447    0.0000    0.0000 C   0  0  0  0  0  0  0  0  0  0  0  0
    6.4302    0.4125    0.0000 N   0  0  0  0  0  0  0  0  0  0  0  0
    5.7158    0.0000    0.0000 C   0  0  0  0  0  0  0  0  0  0  0  0
    5.7158   -0.8250    0.0000 O   0  0  0  0  0  0  0  0  0  0  0  0
    5.0013    0.4125    0.0000 C   0  0  0  0  0  0  0  0  0  0  0  0
    4.2868    0.0000    0.0000 C   0  0  0  0  0  0  0  0  0  0  0  0
    3.5724    0.4125    0.0000 C   0  0  0  0  0  0  0  0  0  0  0  0
    3.5724    1.2375    0.0000 C   0  0  0  0  0  0  0  0  0  0  0  0
    2.8579    1.6500    0.0000 Cl  0  0  0  0  0  0  0  0  0  0  0  0
    4.2868    1.6500    0.0000 C   0  0  0  0  0  0  0  0  0  0  0  0
    5.0013    1.2375    0.0000 C   0  0  0  0  0  0  0  0  0  0  0  0
    8.5737    0.0000    0.0000 N   0  0  0  0  0  0  0  0  0  0  0  0
    9.2881    0.4125    0.0000 C   0  0  0  0  0  0  0  0  0  0  0  0
    9.2881    1.2375    0.0000 C   0  0  0  0  0  0  0  0  0  0  0  0
   10.0026    1.6500    0.0000 C   0  0  0  0  0  0  0  0  0  0  0  0
   10.7171    1.2375    0.0000 C   0  0  0  0  0  0  0  0  0  0  0  0
   10.7171    0.4125    0.0000 C   0  0  0  0  0  0  0  0  0  0  0  0
   11.4315    0.0000    0.0000 C   0  0  0  0  0  0  0  0  0  0  0  0
   11.4315   -0.8250    0.0000 C   0  0  0  0  0  0  0  0  0  0  0  0
   10.7171   -1.2375    0.0000 C   0  0  0  0  0  0  0  0  0  0  0  0
   10.0026   -0.8250    0.0000 C   0  0  0  0  0  0  0  0  0  0  0  0
   10.0026    0.0000    0.0000 C   0  0  0  0  0  0  0  0  0  0  0  0
  1  2  2  0  0  0  0
  2  3  1  0  0  0  0
  3  4  1  0  0  0  0
  4  5  1  0  0  0  0
  5  6  2  0  0  0  0
  5  7  1  0  0  0  0
  7  8  4  0  0  0  0
  8  9  4  0  0  0  0
  9 10  4  0  0  0  0
 10 11  1  0  0  0  0
 10 12  4  0  0  0  0
 12 13  4  0  0  0  0
  7 13  4  0  0  0  0
  2 14  1  0  0  0  0
 14 15  1  0  0  0  0
 15 16  1  0  0  0  0
 16 17  1  0  0  0  0
 17 18  1  0  0  0  0
 18 19  1  0  0  0  0
 19 20  4  0  0  0  0
 20 21  4  0  0  0  0
 21 22  4  0  0  0  0
 22 23  4  0  0  0  0
 23 24  4  0  0  0  0
 19 24  4  0  0  0  0
 15 24  1  0  0  0  0
M  END
> <IC50(uM)>
20.0

> <Outcome>
0.0

> <BindingDB ID>
50527794

> <BindingDB MonomerID>
50201637

> <BindingDB Ligand Name>
CHEMBL3952460

> <Curation/DataSource>
ChEMBL

> <Article DOI>
10.1021/acsmedchemlett.6b00316

> <PMID>
27994748

> <Patent Number>
?

> <Authors>
Lewis, TA; Sykes, DB; Law, JM; Mu??oz, B; Rustiguel, JK; Nonato, MC; Scadden, DT; Schreiber, SL

> <Link to Ligand in BindingDB>
http://www.bindingdb.org/bind/chemsearch/marvin/MolStructure.jsp?monomerid=50201637

> <Link to Ligand-Target Pair in BindingDB>
http://www.bindingdb.org/jsp/dbsearch/PrimarySearch_ki.jsp?energyterm=kJ/mole&tag=r21&monomerid=50201637&enzyme=Dihydroorotate+dehydrogenase&column=ki&startPg=0&Increment=50&submit=Search

> <PubChem CID>
33839737

> <PubChem SID>
375979425

$$$$

  Mrv2115 07222212352D          

 26 29  0  0  0  0            999 V2000
    2.5559   -1.8243    0.0000 O   0  0  0  0  0  0  0  0  0  0  0  0
    2.5559   -2.6493    0.0000 C   0  0  0  0  0  0  0  0  0  0  0  0
    1.8414   -3.0618    0.0000 O   0  0  0  0  0  0  0  0  0  0  0  0
    3.2704   -3.0618    0.0000 C   0  0  0  0  0  0  0  0  0  0  0  0
    3.2704   -3.8868    0.0000 C   0  0  0  0  0  0  0  0  0  0  0  0
    3.9849   -4.2993    0.0000 C   0  0  0  0  0  0  0  0  0  0  0  0
    3.9849   -5.1243    0.0000 C   0  0  0  0  0  0  0  0  0  0  0  0
    4.3974   -5.8388    0.0000 C   0  0  0  0  0  0  0  0  0  0  0  0
    3.5724   -5.8388    0.0000 C   0  0  0  0  0  0  0  0  0  0  0  0
    4.6993   -3.8868    0.0000 C   0  0  0  0  0  0  0  0  0  0  0  0
    4.6993   -3.0618    0.0000 C   0  0  0  0  0  0  0  0  0  0  0  0
    3.9849   -2.6493    0.0000 C   0  0  0  0  0  0  0  0  0  0  0  0
    3.9849   -1.8243    0.0000 N   0  0  0  0  0  0  0  0  0  0  0  0
    4.6993   -1.4118    0.0000 C   0  0  0  0  0  0  0  0  0  0  0  0
    4.6993   -0.5868    0.0000 C   0  0  0  0  0  0  0  0  0  0  0  0
    5.4138   -0.1743    0.0000 C   0  0  0  0  0  0  0  0  0  0  0  0
    6.1283   -0.5868    0.0000 C   0  0  0  0  0  0  0  0  0  0  0  0
    6.8427   -0.1743    0.0000 C   0  0  0  0  0  0  0  0  0  0  0  0
    6.8427    0.6507    0.0000 C   0  0  0  0  0  0  0  0  0  0  0  0
    7.5572    1.0632    0.0000 C   0  0  0  0  0  0  0  0  0  0  0  0
    8.2717    0.6507    0.0000 C   0  0  0  0  0  0  0  0  0  0  0  0
    8.2717   -0.1743    0.0000 C   0  0  0  0  0  0  0  0  0  0  0  0
    7.5572   -0.5868    0.0000 C   0  0  0  0  0  0  0  0  0  0  0  0
    7.5572   -1.4118    0.0000 Cl  0  0  0  0  0  0  0  0  0  0  0  0
    6.1283   -1.4118    0.0000 N   0  0  0  0  0  0  0  0  0  0  0  0
    5.4138   -1.8243    0.0000 C   0  0  0  0  0  0  0  0  0  0  0  0
  1  2  2  0  0  0  0
  2  3  1  0  0  0  0
  2  4  1  0  0  0  0
  4  5  4  0  0  0  0
  5  6  4  0  0  0  0
  6  7  1  0  0  0  0
  7  8  1  0  0  0  0
  8  9  1  0  0  0  0
  7  9  1  0  0  0  0
  6 10  4  0  0  0  0
 10 11  4  0  0  0  0
 11 12  4  0  0  0  0
  4 12  4  0  0  0  0
 12 13  1  0  0  0  0
 13 14  1  0  0  0  0
 14 15  4  0  0  0  0
 15 16  4  0  0  0  0
 16 17  4  0  0  0  0
 17 18  1  0  0  0  0
 18 19  4  0  0  0  0
 19 20  4  0  0  0  0
 20 21  4  0  0  0  0
 21 22  4  0  0  0  0
 22 23  4  0  0  0  0
 18 23  4  0  0  0  0
 23 24  1  0  0  0  0
 17 25  4  0  0  0  0
 25 26  4  0  0  0  0
 14 26  4  0  0  0  0
M  END
> <IC50(uM)>
0.004

> <Outcome>
1.0

> <BindingDB ID>
220015

> <BindingDB MonomerID>
102485

> <BindingDB Ligand Name>
US8536165, 86

> <Curation/DataSource>
US Patent

> <Article DOI>
?

> <PMID>
?

> <Patent Number>
US8536165

> <Authors>
Castro Palomino Laria, JC; Terricabras Belart, E; Erra Sola, M; Navarro Romero, E; Fonquerna Pou, S; Cardus Figueras, A; Lozoya Toribio, ME

> <Link to Ligand in BindingDB>
http://www.bindingdb.org/bind/chemsearch/marvin/MolStructure.jsp?monomerid=102485

> <Link to Ligand-Target Pair in BindingDB>
http://www.bindingdb.org/jsp/dbsearch/PrimarySearch_ki.jsp?energyterm=kJ/mole&tag=r21&monomerid=102485&enzyme=Dihydroorotate+dehydrogenase&column=ki&startPg=0&Increment=50&submit=Search

> <PubChem CID>
56968469

> <PubChem SID>
172097776

$$$$

  Mrv2115 07222212352D          

 25 28  0  0  0  0            999 V2000
   -0.7145   -2.0625    0.0000 N   0  0  0  0  0  0  0  0  0  0  0  0
    0.0000   -1.6500    0.0000 C   0  0  0  0  0  0  0  0  0  0  0  0
    0.7145   -1.2375    0.0000 C   0  0  0  0  0  0  0  0  0  0  0  0
    0.7145   -0.4125    0.0000 C   0  0  0  0  0  0  0  0  0  0  0  0
    0.0000    0.0000    0.0000 C   0  0  0  0  0  0  0  0  0  0  0  0
   -0.7145   -0.4125    0.0000 C   0  0  0  0  0  0  0  0  0  0  0  0
   -1.4289    0.0000    0.0000 C   0  0  0  0  0  0  0  0  0  0  0  0
   -1.4289    0.8250    0.0000 C   0  0  0  0  0  0  0  0  0  0  0  0
   -2.1434    1.2375    0.0000 C   0  0  0  0  0  0  0  0  0  0  0  0
   -2.8579    0.8250    0.0000 C   0  0  0  0  0  0  0  0  0  0  0  0
   -3.5724    1.2375    0.0000 N   0  0  0  0  0  0  0  0  0  0  0  0
   -3.5724    2.0625    0.0000 C   0  0  0  0  0  0  0  0  0  0  0  0
   -2.8579    2.4750    0.0000 N   0  0  0  0  0  0  0  0  0  0  0  0
   -2.1434    2.0625    0.0000 C   0  0  0  0  0  0  0  0  0  0  0  0
   -0.7145    1.2375    0.0000 C   0  0  0  0  0  0  0  0  0  0  0  0
    0.0000    0.8250    0.0000 C   0  0  0  0  0  0  0  0  0  0  0  0
    1.4289    0.0000    0.0000 N   0  0  0  0  0  0  0  0  0  0  0  0
    2.1434   -0.4125    0.0000 C   0  0  0  0  0  0  0  0  0  0  0  0
    2.8579    0.0000    0.0000 C   0  0  0  0  0  0  0  0  0  0  0  0
    3.5724   -0.4125    0.0000 C   0  0  0  0  0  0  0  0  0  0  0  0
    3.5724   -1.2375    0.0000 N   0  0  0  0  0  0  0  0  0  0  0  0
    2.8579   -1.6500    0.0000 C   0  0  0  0  0  0  0  0  0  0  0  0
    2.1434   -1.2375    0.0000 C   0  0  0  0  0  0  0  0  0  0  0  0
    1.4289   -1.6500    0.0000 C   0  0  0  0  0  0  0  0  0  0  0  0
    1.4289   -2.4750    0.0000 O   0  0  0  0  0  0  0  0  0  0  0  0
  1  2  3  0  0  0  0
  2  3  1  0  0  0  0
  3  4  4  0  0  0  0
  4  5  1  0  0  0  0
  5  6  4  0  0  0  0
  6  7  4  0  0  0  0
  7  8  4  0  0  0  0
  8  9  1  0  0  0  0
  9 10  4  0  0  0  0
 10 11  4  0  0  0  0
 11 12  4  0  0  0  0
 12 13  4  0  0  0  0
 13 14  4  0  0  0  0
  9 14  4  0  0  0  0
  8 15  4  0  0  0  0
 15 16  4  0  0  0  0
  5 16  4  0  0  0  0
  4 17  4  0  0  0  0
 17 18  4  0  0  0  0
 18 19  4  0  0  0  0
 19 20  4  0  0  0  0
 20 21  4  0  0  0  0
 21 22  4  0  0  0  0
 22 23  4  0  0  0  0
 18 23  4  0  0  0  0
 23 24  4  0  0  0  0
  3 24  4  0  0  0  0
 24 25  1  0  0  0  0
M  END
> <IC50(uM)>
9.9

> <Outcome>
0.0

> <BindingDB ID>
50720833

> <BindingDB MonomerID>
50365497

> <BindingDB Ligand Name>
CHEMBL1957372

> <Curation/DataSource>
ChEMBL

> <Article DOI>
10.1016/j.bmcl.2012.01.046

> <PMID>
22321214

> <Patent Number>
?

> <Authors>
Bauer, U; Giordanetto, F; Bauer, M; O'Mahony, G; Johansson, KE; Knecht, W; Hartleib-Geschwindner, J; Carlsson, ET; Enroth, C

> <Link to Ligand in BindingDB>
http://www.bindingdb.org/bind/chemsearch/marvin/MolStructure.jsp?monomerid=50365497

> <Link to Ligand-Target Pair in BindingDB>
http://www.bindingdb.org/jsp/dbsearch/PrimarySearch_ki.jsp?energyterm=kJ/mole&tag=r21&monomerid=50365497&enzyme=Dihydroorotate+dehydrogenase&column=ki&startPg=0&Increment=50&submit=Search

> <PubChem CID>
57396592

> <PubChem SID>
136969559

$$$$

  Mrv2115 07222212352D          

 25 27  0  0  0  0            999 V2000
    7.8592    1.2375    0.0000 O   0  0  0  0  0  0  0  0  0  0  0  0
    7.8592    0.4125    0.0000 C   0  0  0  0  0  0  0  0  0  0  0  0
    7.1447    0.0000    0.0000 C   0  0  0  0  0  0  0  0  0  0  0  0
    6.4302    0.4125    0.0000 C   0  0  0  0  0  0  0  0  0  0  0  0
    5.7158    0.0000    0.0000 N   0  0  0  0  0  0  0  0  0  0  0  0
    5.0013    0.4125    0.0000 C   0  0  0  0  0  0  0  0  0  0  0  0
    5.0013    1.2375    0.0000 O   0  0  0  0  0  0  0  0  0  0  0  0
    4.2868    0.0000    0.0000 C   0  0  0  0  0  0  0  0  0  0  0  0
    4.2868   -0.8250    0.0000 C   0  0  0  0  0  0  0  0  0  0  0  0
    3.5724   -1.2375    0.0000 C   0  0  0  0  0  0  0  0  0  0  0  0
    2.8579   -0.8250    0.0000 C   0  0  0  0  0  0  0  0  0  0  0  0
    2.8579    0.0000    0.0000 C   0  0  0  0  0  0  0  0  0  0  0  0
    2.1434    0.4125    0.0000 Cl  0  0  0  0  0  0  0  0  0  0  0  0
    3.5724    0.4125    0.0000 C   0  0  0  0  0  0  0  0  0  0  0  0
    8.5737    0.0000    0.0000 N   0  0  0  0  0  0  0  0  0  0  0  0
    9.2881    0.4125    0.0000 C   0  0  0  0  0  0  0  0  0  0  0  0
    9.2881    1.2375    0.0000 C   0  0  0  0  0  0  0  0  0  0  0  0
   10.0026    1.6500    0.0000 C   0  0  0  0  0  0  0  0  0  0  0  0
   10.7171    1.2375    0.0000 C   0  0  0  0  0  0  0  0  0  0  0  0
   10.7171    0.4125    0.0000 C   0  0  0  0  0  0  0  0  0  0  0  0
   11.4315    0.0000    0.0000 C   0  0  0  0  0  0  0  0  0  0  0  0
   11.4315   -0.8250    0.0000 C   0  0  0  0  0  0  0  0  0  0  0  0
   10.7171   -1.2375    0.0000 C   0  0  0  0  0  0  0  0  0  0  0  0
   10.0026   -0.8250    0.0000 C   0  0  0  0  0  0  0  0  0  0  0  0
   10.0026    0.0000    0.0000 C   0  0  0  0  0  0  0  0  0  0  0  0
  1  2  2  0  0  0  0
  2  3  1  0  0  0  0
  3  4  1  0  0  0  0
  4  5  1  0  0  0  0
  5  6  1  0  0  0  0
  6  7  2  0  0  0  0
  6  8  1  0  0  0  0
  8  9  4  0  0  0  0
  9 10  4  0  0  0  0
 10 11  4  0  0  0  0
 11 12  4  0  0  0  0
 12 13  1  0  0  0  0
 12 14  4  0  0  0  0
  8 14  4  0  0  0  0
  2 15  1  0  0  0  0
 15 16  1  0  0  0  0
 16 17  1  0  0  0  0
 17 18  1  0  0  0  0
 18 19  1  0  0  0  0
 19 20  1  0  0  0  0
 20 21  4  0  0  0  0
 21 22  4  0  0  0  0
 22 23  4  0  0  0  0
 23 24  4  0  0  0  0
 24 25  4  0  0  0  0
 20 25  4  0  0  0  0
 16 25  1  0  0  0  0
M  END
> <IC50(uM)>
7.4

> <Outcome>
0.0

> <BindingDB ID>
50527777

> <BindingDB MonomerID>
50201621

> <BindingDB Ligand Name>
CHEMBL3186409

> <Curation/DataSource>
ChEMBL

> <Article DOI>
10.1021/acsmedchemlett.6b00316

> <PMID>
27994748

> <Patent Number>
?

> <Authors>
Lewis, TA; Sykes, DB; Law, JM; Mu??oz, B; Rustiguel, JK; Nonato, MC; Scadden, DT; Schreiber, SL

> <Link to Ligand in BindingDB>
http://www.bindingdb.org/bind/chemsearch/marvin/MolStructure.jsp?monomerid=50201621

> <Link to Ligand-Target Pair in BindingDB>
http://www.bindingdb.org/jsp/dbsearch/PrimarySearch_ki.jsp?energyterm=kJ/mole&tag=r21&monomerid=50201621&enzyme=Dihydroorotate+dehydrogenase&column=ki&startPg=0&Increment=50&submit=Search

> <PubChem CID>
71768301

> <PubChem SID>
375979409

$$$$

  Mrv2115 07222212352D          

 20 22  0  0  0  0            999 V2000
    4.0668    2.3479    0.0000 C   0  0  0  0  0  0  0  0  0  0  0  0
    3.3523    1.9354    0.0000 C   0  0  0  0  0  0  0  0  0  0  0  0
    3.3523    1.1104    0.0000 C   0  0  0  0  0  0  0  0  0  0  0  0
    2.6378    0.6979    0.0000 C   0  0  0  0  0  0  0  0  0  0  0  0
    2.6378   -0.1271    0.0000 N   0  0  0  0  0  0  0  0  0  0  0  0
    1.9233   -0.5396    0.0000 C   0  0  0  0  0  0  0  0  0  0  0  0
    1.9233   -1.3646    0.0000 C   0  0  0  0  0  0  0  0  0  0  0  0
    1.2089   -1.7771    0.0000 C   0  0  0  0  0  0  0  0  0  0  0  0
    0.4944   -1.3646    0.0000 C   0  0  0  0  0  0  0  0  0  0  0  0
   -0.2201   -1.7771    0.0000 C   0  0  0  0  0  0  0  0  0  0  0  0
   -0.2201   -2.6021    0.0000 C   0  0  0  0  0  0  0  0  0  0  0  0
   -0.9345   -1.3646    0.0000 C   0  0  0  0  0  0  0  0  0  0  0  0
    0.4944   -0.5396    0.0000 C   0  0  0  0  0  0  0  0  0  0  0  0
    1.2089   -0.1271    0.0000 C   0  0  0  0  0  0  0  0  0  0  0  0
    1.9233    1.1104    0.0000 N   0  0  0  0  0  0  0  0  0  0  0  0
    1.1387    0.8555    0.0000 N   0  0  0  0  0  0  0  0  0  0  0  0
    0.6538    1.5229    0.0000 C   0  0  0  0  0  0  0  0  0  0  0  0
    1.1387    2.1904    0.0000 N   0  0  0  0  0  0  0  0  0  0  0  0
    1.9233    1.9354    0.0000 C   0  0  0  0  0  0  0  0  0  0  0  0
    2.6378    2.3479    0.0000 N   0  0  0  0  0  0  0  0  0  0  0  0
  1  2  1  0  0  0  0
  2  3  4  0  0  0  0
  3  4  4  0  0  0  0
  4  5  1  0  0  0  0
  5  6  1  0  0  0  0
  6  7  4  0  0  0  0
  7  8  4  0  0  0  0
  8  9  4  0  0  0  0
  9 10  1  0  0  0  0
 10 11  1  0  0  0  0
 10 12  1  0  0  0  0
  9 13  4  0  0  0  0
 13 14  4  0  0  0  0
  6 14  4  0  0  0  0
  4 15  4  0  0  0  0
 15 16  4  0  0  0  0
 16 17  4  0  0  0  0
 17 18  4  0  0  0  0
 18 19  4  0  0  0  0
 15 19  4  0  0  0  0
 19 20  4  0  0  0  0
  2 20  4  0  0  0  0
M  END
> <IC50(uM)>
100.0

> <Outcome>
0.0

> <BindingDB ID>
50643177

> <BindingDB MonomerID>
50345421

> <BindingDB Ligand Name>
CHEMBL600255::N-(4-isopropylphenyl)-5-methyl-[1,2,4]triazolo[1,5-a]pyrimidin-7-amine

> <Curation/DataSource>
ChEMBL

> <Article DOI>
10.1021/jm200265b

> <PMID>
21517059

> <Patent Number>
?

> <Authors>
Gujjar, R; El Mazouni, F; White, KL; White, J; Creason, S; Shackleford, DM; Deng, X; Charman, WN; Bathurst, I; Burrows, J; Floyd, DM; Matthews, D; Buckner, FS; Charman, SA; Phillips, MA; Rathod, PK

> <Link to Ligand in BindingDB>
http://www.bindingdb.org/bind/chemsearch/marvin/MolStructure.jsp?monomerid=50345421

> <Link to Ligand-Target Pair in BindingDB>
http://www.bindingdb.org/jsp/dbsearch/PrimarySearch_ki.jsp?energyterm=kJ/mole&tag=r21&monomerid=50345421&enzyme=Dihydroorotate+dehydrogenase&column=ki&startPg=0&Increment=50&submit=Search

> <PubChem CID>
5308416

> <PubChem SID>
131348357

$$$$

  Mrv2115 07222212352D          

 22 24  0  0  0  0            999 V2000
    1.4491   -2.1291    0.0000 C   0  0  0  0  0  0  0  0  0  0  0  0
    1.6206   -1.3221    0.0000 C   0  0  0  0  0  0  0  0  0  0  0  0
    2.4052   -1.0672    0.0000 O   0  0  0  0  0  0  0  0  0  0  0  0
    2.5768   -0.2602    0.0000 C   0  0  0  0  0  0  0  0  0  0  0  0
    1.9637    0.2918    0.0000 O   0  0  0  0  0  0  0  0  0  0  0  0
    3.3614   -0.0053    0.0000 C   0  0  0  0  0  0  0  0  0  0  0  0
    3.6163    0.7793    0.0000 S   0  0  0  0  0  0  0  0  0  0  0  0
    4.4413    0.7793    0.0000 C   0  0  0  0  0  0  0  0  0  0  0  0
    4.9263    1.4468    0.0000 N   0  0  0  0  0  0  0  0  0  0  0  0
    5.7467    1.3605    0.0000 C   0  0  0  0  0  0  0  0  0  0  0  0
    6.2317    2.0280    0.0000 C   0  0  0  0  0  0  0  0  0  0  0  0
    7.0521    1.9418    0.0000 C   0  0  0  0  0  0  0  0  0  0  0  0
    7.3877    1.1881    0.0000 C   0  0  0  0  0  0  0  0  0  0  0  0
    8.2082    1.1018    0.0000 C   0  0  0  0  0  0  0  0  0  0  0  0
    6.9028    0.5206    0.0000 C   0  0  0  0  0  0  0  0  0  0  0  0
    7.2383   -0.2330    0.0000 Cl  0  0  0  0  0  0  0  0  0  0  0  0
    6.0823    0.6069    0.0000 C   0  0  0  0  0  0  0  0  0  0  0  0
    4.6963   -0.0053    0.0000 N   0  0  0  0  0  0  0  0  0  0  0  0
    4.0288   -0.4902    0.0000 C   0  0  0  0  0  0  0  0  0  0  0  0
    4.0288   -1.3152    0.0000 C   0  0  0  0  0  0  0  0  0  0  0  0
    4.4413   -2.0297    0.0000 C   0  0  0  0  0  0  0  0  0  0  0  0
    3.6163   -2.0297    0.0000 C   0  0  0  0  0  0  0  0  0  0  0  0
  1  2  1  0  0  0  0
  2  3  1  0  0  0  0
  3  4  1  0  0  0  0
  4  5  2  0  0  0  0
  4  6  1  0  0  0  0
  6  7  4  0  0  0  0
  7  8  4  0  0  0  0
  8  9  1  0  0  0  0
  9 10  1  0  0  0  0
 10 11  4  0  0  0  0
 11 12  4  0  0  0  0
 12 13  4  0  0  0  0
 13 14  1  0  0  0  0
 13 15  4  0  0  0  0
 15 16  1  0  0  0  0
 15 17  4  0  0  0  0
 10 17  4  0  0  0  0
  8 18  4  0  0  0  0
 18 19  4  0  0  0  0
  6 19  4  0  0  0  0
 19 20  1  0  0  0  0
 20 21  1  0  0  0  0
 21 22  1  0  0  0  0
 20 22  1  0  0  0  0
M  END
> <IC50(uM)>
0.372

> <Outcome>
1.0

> <BindingDB ID>
50312275

> <BindingDB MonomerID>
50071628

> <BindingDB Ligand Name>
CHEMBL3410590

> <Curation/DataSource>
ChEMBL

> <Article DOI>
10.1021/jm501127s

> <PMID>
25580811

> <Patent Number>
?

> <Authors>
Zhu, J; Han, L; Diao, Y; Ren, X; Xu, M; Xu, L; Li, S; Li, Q; Dong, D; Huang, J; Liu, X; Zhao, Z; Wang, R; Zhu, L; Xu, Y; Qian, X; Li, H

> <Link to Ligand in BindingDB>
http://www.bindingdb.org/bind/chemsearch/marvin/MolStructure.jsp?monomerid=50071628

> <Link to Ligand-Target Pair in BindingDB>
http://www.bindingdb.org/jsp/dbsearch/PrimarySearch_ki.jsp?energyterm=kJ/mole&tag=r21&monomerid=50071628&enzyme=Dihydroorotate+dehydrogenase&column=ki&startPg=0&Increment=50&submit=Search

> <PubChem CID>
118732506

> <PubChem SID>
313072560

$$$$

  Mrv2115 07222212352D          

 26 29  0  0  0  0            999 V2000
    5.4957    4.8229    0.0000 C   0  0  0  0  0  0  0  0  0  0  0  0
    6.2102    4.4104    0.0000 C   0  0  0  0  0  0  0  0  0  0  0  0
    6.9246    4.8229    0.0000 C   0  0  0  0  0  0  0  0  0  0  0  0
    7.6391    4.4104    0.0000 C   0  0  0  0  0  0  0  0  0  0  0  0
    7.6391    3.5854    0.0000 C   0  0  0  0  0  0  0  0  0  0  0  0
    6.9246    3.1729    0.0000 C   0  0  0  0  0  0  0  0  0  0  0  0
    6.2102    3.5854    0.0000 C   0  0  0  0  0  0  0  0  0  0  0  0
    5.4957    3.1729    0.0000 C   0  0  0  0  0  0  0  0  0  0  0  0
    5.4957    2.3479    0.0000 C   0  0  0  0  0  0  0  0  0  0  0  0
    4.7812    1.9354    0.0000 C   0  0  0  0  0  0  0  0  0  0  0  0
    4.0668    2.3479    0.0000 C   0  0  0  0  0  0  0  0  0  0  0  0
    3.3523    1.9354    0.0000 C   0  0  0  0  0  0  0  0  0  0  0  0
    3.3523    1.1104    0.0000 C   0  0  0  0  0  0  0  0  0  0  0  0
    2.6378    0.6979    0.0000 C   0  0  0  0  0  0  0  0  0  0  0  0
    2.6378   -0.1271    0.0000 C   0  0  0  0  0  0  0  0  0  0  0  0
    1.9233   -0.5396    0.0000 N   0  0  0  0  0  0  0  0  0  0  0  0
    3.3523   -0.5396    0.0000 O   0  0  0  0  0  0  0  0  0  0  0  0
    1.9233    1.1104    0.0000 C   0  0  0  0  0  0  0  0  0  0  0  0
    1.1387    0.8555    0.0000 N   0  0  0  0  0  0  0  0  0  0  0  0
    0.6538    1.5229    0.0000 N   0  0  0  0  0  0  0  0  0  0  0  0
   -0.1712    1.5229    0.0000 C   0  0  0  0  0  0  0  0  0  0  0  0
    1.1387    2.1904    0.0000 N   0  0  0  0  0  0  0  0  0  0  0  0
    1.9233    1.9354    0.0000 C   0  0  0  0  0  0  0  0  0  0  0  0
    2.6378    2.3479    0.0000 C   0  0  0  0  0  0  0  0  0  0  0  0
    4.0668    3.1729    0.0000 C   0  0  0  0  0  0  0  0  0  0  0  0
    4.7812    3.5854    0.0000 C   0  0  0  0  0  0  0  0  0  0  0  0
  1  2  1  0  0  0  0
  2  3  4  0  0  0  0
  3  4  4  0  0  0  0
  4  5  4  0  0  0  0
  5  6  4  0  0  0  0
  6  7  4  0  0  0  0
  2  7  4  0  0  0  0
  7  8  1  0  0  0  0
  8  9  4  0  0  0  0
  9 10  4  0  0  0  0
 10 11  4  0  0  0  0
 11 12  1  0  0  0  0
 12 13  4  0  0  0  0
 13 14  4  0  0  0  0
 14 15  1  0  0  0  0
 15 16  1  0  0  0  0
 15 17  2  0  0  0  0
 14 18  4  0  0  0  0
 18 19  4  0  0  0  0
 19 20  4  0  0  0  0
 20 21  1  0  0  0  0
 20 22  4  0  0  0  0
 22 23  4  0  0  0  0
 18 23  4  0  0  0  0
 23 24  4  0  0  0  0
 12 24  4  0  0  0  0
 11 25  4  0  0  0  0
 25 26  4  0  0  0  0
  8 26  4  0  0  0  0
M  END
> <IC50(uM)>
0.55

> <Outcome>
1.0

> <BindingDB ID>
1100166

> <BindingDB MonomerID>
520625

> <BindingDB Ligand Name>
2-methyl-6-(2'-methyl-[1,1'-biphenyl]-4-yl)-2H-benzo[d][1,2,3]triazole-4- carboxamide;::US11147801, Compound 11

> <Curation/DataSource>
US Patent

> <Article DOI>
?

> <PMID>
?

> <Patent Number>
US11147801

> <Authors>
Nellore, K; Hosahalli, S

> <Link to Ligand in BindingDB>
http://www.bindingdb.org/bind/chemsearch/marvin/MolStructure.jsp?monomerid=520625

> <Link to Ligand-Target Pair in BindingDB>
http://www.bindingdb.org/jsp/dbsearch/PrimarySearch_ki.jsp?energyterm=kJ/mole&tag=r21&monomerid=520625&enzyme=Dihydroorotate+dehydrogenase&column=ki&startPg=0&Increment=50&submit=Search

> <PubChem CID>
?

> <PubChem SID>
?

$$$$

  Mrv2115 07222212352D          

 26 29  0  0  0  0            999 V2000
    2.1434   -2.8875    0.0000 O   0  0  0  0  0  0  0  0  0  0  0  0
    1.4289   -2.4750    0.0000 C   0  0  0  0  0  0  0  0  0  0  0  0
    0.7145   -2.8875    0.0000 O   0  0  0  0  0  0  0  0  0  0  0  0
    1.4289   -1.6500    0.0000 C   0  0  0  0  0  0  0  0  0  0  0  0
    0.7145   -1.2375    0.0000 C   0  0  0  0  0  0  0  0  0  0  0  0
    0.0000   -1.6500    0.0000 O   0  0  0  0  0  0  0  0  0  0  0  0
    0.7145   -0.4125    0.0000 C   0  0  0  0  0  0  0  0  0  0  0  0
    0.0000    0.0000    0.0000 C   0  0  0  0  0  0  0  0  0  0  0  0
   -0.7145   -0.4125    0.0000 C   0  0  0  0  0  0  0  0  0  0  0  0
   -1.4289    0.0000    0.0000 C   0  0  0  0  0  0  0  0  0  0  0  0
   -1.4289    0.8250    0.0000 C   0  0  0  0  0  0  0  0  0  0  0  0
   -2.1434    1.2375    0.0000 C   0  0  0  0  0  0  0  0  0  0  0  0
   -2.8579    0.8250    0.0000 C   0  0  0  0  0  0  0  0  0  0  0  0
   -3.5724    1.2375    0.0000 C   0  0  0  0  0  0  0  0  0  0  0  0
   -3.5724    2.0625    0.0000 C   0  0  0  0  0  0  0  0  0  0  0  0
   -2.8579    2.4750    0.0000 C   0  0  0  0  0  0  0  0  0  0  0  0
   -2.1434    2.0625    0.0000 C   0  0  0  0  0  0  0  0  0  0  0  0
   -0.7145    1.2375    0.0000 C   0  0  0  0  0  0  0  0  0  0  0  0
    0.0000    0.8250    0.0000 C   0  0  0  0  0  0  0  0  0  0  0  0
    1.4289    0.0000    0.0000 N   0  0  0  0  0  0  0  0  0  0  0  0
    2.1434   -0.4125    0.0000 C   0  0  0  0  0  0  0  0  0  0  0  0
    2.8579    0.0000    0.0000 C   0  0  0  0  0  0  0  0  0  0  0  0
    3.5724   -0.4125    0.0000 C   0  0  0  0  0  0  0  0  0  0  0  0
    3.5724   -1.2375    0.0000 C   0  0  0  0  0  0  0  0  0  0  0  0
    2.8579   -1.6500    0.0000 C   0  0  0  0  0  0  0  0  0  0  0  0
    2.1434   -1.2375    0.0000 C   0  0  0  0  0  0  0  0  0  0  0  0
  1  2  2  0  0  0  0
  2  3  1  0  0  0  0
  2  4  1  0  0  0  0
  4  5  4  0  0  0  0
  5  6  1  0  0  0  0
  5  7  4  0  0  0  0
  7  8  1  0  0  0  0
  8  9  4  0  0  0  0
  9 10  4  0  0  0  0
 10 11  4  0  0  0  0
 11 12  1  0  0  0  0
 12 13  4  0  0  0  0
 13 14  4  0  0  0  0
 14 15  4  0  0  0  0
 15 16  4  0  0  0  0
 16 17  4  0  0  0  0
 12 17  4  0  0  0  0
 11 18  4  0  0  0  0
 18 19  4  0  0  0  0
  8 19  4  0  0  0  0
  7 20  4  0  0  0  0
 20 21  4  0  0  0  0
 21 22  4  0  0  0  0
 22 23  4  0  0  0  0
 23 24  4  0  0  0  0
 24 25  4  0  0  0  0
 25 26  4  0  0  0  0
  4 26  4  0  0  0  0
 21 26  4  0  0  0  0
M  END
> <IC50(uM)>
0.01

> <Outcome>
1.0

> <BindingDB ID>
50841938

> <BindingDB MonomerID>
50201949

> <BindingDB Ligand Name>
2-biphenyl-4-yl-3-hydroxy-quinoline-4-carboxylic acid::CHEMBL219648

> <Curation/DataSource>
ChEMBL

> <Article DOI>
10.1021/jm0602256

> <PMID>
17201408

> <Patent Number>
?

> <Authors>
Kaila, N; Janz, K; DeBernardo, S; Bedard, PW; Camphausen, RT; Tam, S; Tsao, DH; Keith, JC; Nickerson-Nutter, C; Shilling, A; Young-Sciame, R; Wang, Q

> <Link to Ligand in BindingDB>
http://www.bindingdb.org/bind/chemsearch/marvin/MolStructure.jsp?monomerid=50201949

> <Link to Ligand-Target Pair in BindingDB>
http://www.bindingdb.org/jsp/dbsearch/PrimarySearch_ki.jsp?energyterm=kJ/mole&tag=r21&monomerid=50201949&enzyme=Dihydroorotate+dehydrogenase&column=ki&startPg=0&Increment=50&submit=Search

> <PubChem CID>
14498150

> <PubChem SID>
104081600

$$$$

  Mrv2115 07222212352D          

 23 25  0  0  0  0            999 V2000
    4.0668    2.3479    0.0000 C   0  0  0  0  0  0  0  0  0  0  0  0
    3.3523    1.9354    0.0000 C   0  0  0  0  0  0  0  0  0  0  0  0
    3.3523    1.1104    0.0000 C   0  0  0  0  0  0  0  0  0  0  0  0
    2.6378    0.6979    0.0000 C   0  0  0  0  0  0  0  0  0  0  0  0
    2.6378   -0.1271    0.0000 N   0  0  0  0  0  0  0  0  0  0  0  0
    3.3523   -0.5396    0.0000 C   0  0  0  0  0  0  0  0  0  0  0  0
    4.0668   -0.1271    0.0000 O   0  0  0  0  0  0  0  0  0  0  0  0
    3.3523   -1.3646    0.0000 C   0  0  0  0  0  0  0  0  0  0  0  0
    4.0668   -1.7771    0.0000 C   0  0  0  0  0  0  0  0  0  0  0  0
    4.0668   -2.6021    0.0000 C   0  0  0  0  0  0  0  0  0  0  0  0
    3.3523   -3.0146    0.0000 C   0  0  0  0  0  0  0  0  0  0  0  0
    3.3523   -3.8396    0.0000 C   0  0  0  0  0  0  0  0  0  0  0  0
    3.3523   -4.6646    0.0000 F   0  0  0  0  0  0  0  0  0  0  0  0
    2.5273   -3.8396    0.0000 F   0  0  0  0  0  0  0  0  0  0  0  0
    4.1773   -3.8396    0.0000 F   0  0  0  0  0  0  0  0  0  0  0  0
    2.6378   -2.6021    0.0000 C   0  0  0  0  0  0  0  0  0  0  0  0
    2.6378   -1.7771    0.0000 C   0  0  0  0  0  0  0  0  0  0  0  0
    1.9233    1.1104    0.0000 N   0  0  0  0  0  0  0  0  0  0  0  0
    1.1387    0.8555    0.0000 N   0  0  0  0  0  0  0  0  0  0  0  0
    0.6538    1.5229    0.0000 C   0  0  0  0  0  0  0  0  0  0  0  0
    1.1387    2.1904    0.0000 N   0  0  0  0  0  0  0  0  0  0  0  0
    1.9233    1.9354    0.0000 C   0  0  0  0  0  0  0  0  0  0  0  0
    2.6378    2.3479    0.0000 N   0  0  0  0  0  0  0  0  0  0  0  0
  1  2  1  0  0  0  0
  2  3  4  0  0  0  0
  3  4  4  0  0  0  0
  4  5  1  0  0  0  0
  5  6  1  0  0  0  0
  6  7  2  0  0  0  0
  6  8  1  0  0  0  0
  8  9  4  0  0  0  0
  9 10  4  0  0  0  0
 10 11  4  0  0  0  0
 11 12  1  0  0  0  0
 12 13  1  0  0  0  0
 12 14  1  0  0  0  0
 12 15  1  0  0  0  0
 11 16  4  0  0  0  0
 16 17  4  0  0  0  0
  8 17  4  0  0  0  0
  4 18  4  0  0  0  0
 18 19  4  0  0  0  0
 19 20  4  0  0  0  0
 20 21  4  0  0  0  0
 21 22  4  0  0  0  0
 18 22  4  0  0  0  0
 22 23  4  0  0  0  0
  2 23  4  0  0  0  0
M  END
> <IC50(uM)>
100.0

> <Outcome>
0.0

> <BindingDB ID>
50967540

> <BindingDB MonomerID>
50396727

> <BindingDB Ligand Name>
CHEMBL2172237

> <Curation/DataSource>
ChEMBL

> <Article DOI>
10.1021/jm300351w

> <PMID>
22877245

> <Patent Number>
?

> <Authors>
Marwaha, A; White, J; El Mazouni, F; Creason, SA; Kokkonda, S; Buckner, FS; Charman, SA; Phillips, MA; Rathod, PK

> <Link to Ligand in BindingDB>
http://www.bindingdb.org/bind/chemsearch/marvin/MolStructure.jsp?monomerid=50396727

> <Link to Ligand-Target Pair in BindingDB>
http://www.bindingdb.org/jsp/dbsearch/PrimarySearch_ki.jsp?energyterm=kJ/mole&tag=r21&monomerid=50396727&enzyme=Dihydroorotate+dehydrogenase&column=ki&startPg=0&Increment=50&submit=Search

> <PubChem CID>
71460750

> <PubChem SID>
163345751

$$$$

  Mrv2115 07222212352D          

 34 37  0  0  0  0            999 V2000
    0.7145   -3.7125    0.0000 C   0  0  0  0  0  0  0  0  0  0  0  0
    1.4289   -4.1250    0.0000 C   0  0  0  0  0  0  0  0  0  0  0  0
    1.4289   -4.9500    0.0000 C   0  0  0  0  0  0  0  0  0  0  0  0
    2.0964   -5.4349    0.0000 N   0  0  0  0  0  0  0  0  0  0  0  0
    1.8414   -6.2195    0.0000 N   0  0  0  0  0  0  0  0  0  0  0  0
    2.3264   -6.8870    0.0000 C   0  0  0  0  0  0  0  0  0  0  0  0
    3.1468   -6.8007    0.0000 C   0  0  0  0  0  0  0  0  0  0  0  0
    3.6318   -7.4682    0.0000 C   0  0  0  0  0  0  0  0  0  0  0  0
    4.4522   -7.3820    0.0000 O   0  0  0  0  0  0  0  0  0  0  0  0
    4.7878   -6.6283    0.0000 C   0  0  0  0  0  0  0  0  0  0  0  0
    4.3029   -5.9608    0.0000 C   0  0  0  0  0  0  0  0  0  0  0  0
    5.6083   -6.5420    0.0000 C   0  0  0  0  0  0  0  0  0  0  0  0
    5.9438   -5.7884    0.0000 C   0  0  0  0  0  0  0  0  0  0  0  0
    6.7643   -5.7021    0.0000 C   0  0  0  0  0  0  0  0  0  0  0  0
    7.2492   -6.3696    0.0000 C   0  0  0  0  0  0  0  0  0  0  0  0
    6.9137   -7.1232    0.0000 C   0  0  0  0  0  0  0  0  0  0  0  0
    6.0932   -7.2095    0.0000 C   0  0  0  0  0  0  0  0  0  0  0  0
    3.2962   -8.2219    0.0000 C   0  0  0  0  0  0  0  0  0  0  0  0
    3.7811   -8.8893    0.0000 C   0  0  0  0  0  0  0  0  0  0  0  0
    3.4456   -9.6430    0.0000 O   0  0  0  0  0  0  0  0  0  0  0  0
    4.6016   -8.8031    0.0000 N   0  0  0  0  0  0  0  0  0  0  0  0
    5.0865   -9.4705    0.0000 C   0  0  0  0  0  0  0  0  0  0  0  0
    5.9070   -9.3843    0.0000 C   0  0  0  0  0  0  0  0  0  0  0  0
    6.3919  -10.0517    0.0000 C   0  0  0  0  0  0  0  0  0  0  0  0
    6.0564  -10.8054    0.0000 O   0  0  0  0  0  0  0  0  0  0  0  0
    5.2359  -10.8916    0.0000 C   0  0  0  0  0  0  0  0  0  0  0  0
    4.7510  -10.2242    0.0000 C   0  0  0  0  0  0  0  0  0  0  0  0
    2.4757   -8.3081    0.0000 C   0  0  0  0  0  0  0  0  0  0  0  0
    1.9908   -7.6407    0.0000 C   0  0  0  0  0  0  0  0  0  0  0  0
    1.1703   -7.7269    0.0000 F   0  0  0  0  0  0  0  0  0  0  0  0
    1.0164   -6.2195    0.0000 C   0  0  0  0  0  0  0  0  0  0  0  0
    0.5315   -6.8870    0.0000 O   0  0  0  0  0  0  0  0  0  0  0  0
    0.7615   -5.4349    0.0000 N   0  0  0  0  0  0  0  0  0  0  0  0
   -0.0231   -5.1800    0.0000 C   0  0  0  0  0  0  0  0  0  0  0  0
  1  2  1  0  0  0  0
  2  3  1  0  0  0  0
  3  4  4  0  0  0  0
  4  5  4  0  0  0  0
  5  6  1  0  0  0  0
  6  7  4  0  0  0  0
  7  8  4  0  0  0  0
  8  9  1  0  0  0  0
  9 10  1  0  0  0  0
 10 11  1  0  0  0  0
 10 12  1  0  0  0  0
 12 13  1  0  0  0  0
 13 14  1  0  0  0  0
 14 15  1  0  0  0  0
 15 16  1  0  0  0  0
 16 17  1  0  0  0  0
 12 17  1  0  0  0  0
  8 18  4  0  0  0  0
 18 19  1  0  0  0  0
 19 20  2  0  0  0  0
 19 21  1  0  0  0  0
 21 22  1  0  0  0  0
 22 23  1  0  0  0  0
 23 24  1  0  0  0  0
 24 25  1  0  0  0  0
 25 26  1  0  0  0  0
 26 27  1  0  0  0  0
 22 27  1  0  0  0  0
 18 28  4  0  0  0  0
 28 29  4  0  0  0  0
  6 29  4  0  0  0  0
 29 30  1  0  0  0  0
  5 31  4  0  0  0  0
 31 32  2  0  0  0  0
 31 33  4  0  0  0  0
  3 33  4  0  0  0  0
 33 34  1  0  0  0  0
M  END
> <IC50(uM)>
0.42

> <Outcome>
1.0

> <BindingDB ID>
1098813; 972659

> <BindingDB MonomerID>
470537

> <BindingDB Ligand Name>
2-[(1S)-1-cyclohexylethoxy]-4-(3-ethyl-4-methyl-5-oxo-4,5-dihydro-1H-1,2,4-triazol-1-yl)-5-fluoro-N-(oxan-4-yl)benzamide::US10815215, Example 197::US11130745, Example 197; 2-[(1S)-1-cyclohexylethoxy]-4-(3-ethyl-4-methyl-5-oxo-4,5-dihydro-1H-1,2,4-triazol-1-yl)-5-fluoro-N-(oxan-4-yl)benzamide::US10815215, Example 197

> <Curation/DataSource>
US Patent

> <Article DOI>
?

> <PMID>
?

> <Patent Number>
US11130745; US10815215

> <Authors>
Gradl, SN; Nguyen, D; Eis, K; Gunther, J; Stellfeld, T; Janzer, A; Christian, S; Muller, T; Sheikh, SE; Sykes, DB; Ferrara, SJ; Krober, M; Merz, C; Niehues, M; Schafer, M; Zimmermann, K; Nising, CF; Gradl, SN; Nguyen, D; Eis, K; Gunther, J; Stellfeld, T; Janzer, A; Christian, S; Muller, T; Sheikh, SE; Zhou, HJ; Zhao, C; Sykes, DB; Ferrara, SJ; Liu, K; Krober, M; Merz, C; Niehues, M; Schafer, M; Zimmermann, K; Nising, CF

> <Link to Ligand in BindingDB>
http://www.bindingdb.org/bind/chemsearch/marvin/MolStructure.jsp?monomerid=470537

> <Link to Ligand-Target Pair in BindingDB>
http://www.bindingdb.org/jsp/dbsearch/PrimarySearch_ki.jsp?energyterm=kJ/mole&tag=r21&monomerid=470537&enzyme=Dihydroorotate+dehydrogenase&column=ki&startPg=0&Increment=50&submit=Search

> <PubChem CID>
134470106

> <PubChem SID>
441609713

$$$$

  Mrv2115 07222212352D          

 36 38  0  0  0  0            999 V2000
    2.1434   -2.8875    0.0000 C   0  0  0  0  0  0  0  0  0  0  0  0
    2.1434   -3.7125    0.0000 C   0  0  0  0  0  0  0  0  0  0  0  0
    1.4289   -4.1250    0.0000 C   0  0  0  0  0  0  0  0  0  0  0  0
    1.4289   -4.9500    0.0000 N   0  0  0  0  0  0  0  0  0  0  0  0
    0.7615   -5.4349    0.0000 C   0  0  0  0  0  0  0  0  0  0  0  0
   -0.0231   -5.1800    0.0000 C   0  0  0  0  0  0  0  0  0  0  0  0
   -0.1946   -4.3730    0.0000 O   0  0  0  0  0  0  0  0  0  0  0  0
    1.0164   -6.2195    0.0000 N   0  0  0  0  0  0  0  0  0  0  0  0
    1.8414   -6.2195    0.0000 N   0  0  0  0  0  0  0  0  0  0  0  0
    2.3264   -6.8870    0.0000 C   0  0  0  0  0  0  0  0  0  0  0  0
    3.1468   -6.8007    0.0000 C   0  0  0  0  0  0  0  0  0  0  0  0
    3.6318   -7.4682    0.0000 C   0  0  0  0  0  0  0  0  0  0  0  0
    4.4522   -7.3820    0.0000 O   0  0  0  0  0  0  0  0  0  0  0  0
    4.7878   -6.6283    0.0000 C   0  0  0  0  0  0  0  0  0  0  0  0
    4.3029   -5.9608    0.0000 C   0  0  0  0  0  0  0  0  0  0  0  0
    5.6083   -6.5420    0.0000 C   0  0  0  0  0  0  0  0  0  0  0  0
    5.6945   -7.3625    0.0000 F   0  0  0  0  0  0  0  0  0  0  0  0
    5.5221   -5.7216    0.0000 F   0  0  0  0  0  0  0  0  0  0  0  0
    6.4288   -6.4558    0.0000 F   0  0  0  0  0  0  0  0  0  0  0  0
    3.2962   -8.2219    0.0000 C   0  0  0  0  0  0  0  0  0  0  0  0
    3.7811   -8.8893    0.0000 C   0  0  0  0  0  0  0  0  0  0  0  0
    3.4456   -9.6430    0.0000 O   0  0  0  0  0  0  0  0  0  0  0  0
    4.6016   -8.8031    0.0000 N   0  0  0  0  0  0  0  0  0  0  0  0
    5.0865   -9.4705    0.0000 C   0  0  0  0  0  0  0  0  0  0  0  0
    5.9070   -9.3843    0.0000 C   0  0  0  0  0  0  0  0  0  0  0  0
    6.2426   -8.6306    0.0000 F   0  0  0  0  0  0  0  0  0  0  0  0
    6.3919  -10.0517    0.0000 C   0  0  0  0  0  0  0  0  0  0  0  0
    6.0564  -10.8054    0.0000 C   0  0  0  0  0  0  0  0  0  0  0  0
    5.2359  -10.8916    0.0000 C   0  0  0  0  0  0  0  0  0  0  0  0
    4.7510  -10.2242    0.0000 C   0  0  0  0  0  0  0  0  0  0  0  0
    3.9305  -10.3104    0.0000 Cl  0  0  0  0  0  0  0  0  0  0  0  0
    2.4757   -8.3081    0.0000 C   0  0  0  0  0  0  0  0  0  0  0  0
    1.9908   -7.6407    0.0000 C   0  0  0  0  0  0  0  0  0  0  0  0
    1.1703   -7.7269    0.0000 F   0  0  0  0  0  0  0  0  0  0  0  0
    2.0964   -5.4349    0.0000 C   0  0  0  0  0  0  0  0  0  0  0  0
    2.8810   -5.1800    0.0000 O   0  0  0  0  0  0  0  0  0  0  0  0
  1  2  2  0  0  0  0
  2  3  1  0  0  0  0
  3  4  1  0  0  0  0
  4  5  4  0  0  0  0
  5  6  1  0  0  0  0
  6  7  1  0  0  0  0
  5  8  4  0  0  0  0
  8  9  4  0  0  0  0
  9 10  1  0  0  0  0
 10 11  4  0  0  0  0
 11 12  4  0  0  0  0
 12 13  1  0  0  0  0
 13 14  1  0  0  0  0
 14 15  1  0  0  0  0
 14 16  1  0  0  0  0
 16 17  1  0  0  0  0
 16 18  1  0  0  0  0
 16 19  1  0  0  0  0
 12 20  4  0  0  0  0
 20 21  1  0  0  0  0
 21 22  2  0  0  0  0
 21 23  1  0  0  0  0
 23 24  1  0  0  0  0
 24 25  4  0  0  0  0
 25 26  1  0  0  0  0
 25 27  4  0  0  0  0
 27 28  4  0  0  0  0
 28 29  4  0  0  0  0
 29 30  4  0  0  0  0
 24 30  4  0  0  0  0
 30 31  1  0  0  0  0
 20 32  4  0  0  0  0
 32 33  4  0  0  0  0
 10 33  4  0  0  0  0
 33 34  1  0  0  0  0
  9 35  4  0  0  0  0
  4 35  4  0  0  0  0
 35 36  2  0  0  0  0
M  END
> <IC50(uM)>
0.0025

> <Outcome>
1.0

> <BindingDB ID>
972646; 1098800

> <BindingDB MonomerID>
470524

> <BindingDB Ligand Name>
N-(2-chloro-6-fluorophenyl)-5-fluoro-4-[3-(hydroxymethyl)-5-oxo-4-(prop-2-en-1-yl)-4,5-dihydro-1H-1,2,4-triazol-1-yl]-2-{[(2S)-1,1,1-trifluoropropan-2-yl]oxy}benzamide::US10815215, Example 184; N-(2-chloro-6-fluorophenyl)-5-fluoro-4-[3-(hydroxymethyl)-5-oxo-4-(prop-2-en-1-yl)-4,5-dihydro-1H-1,2,4-triazol-1-yl]-2-{[(2S)-1,1,1-trifluoropropan-2-yl]oxy}benzamide::US10815215, Example 184::US11130745, Example 184

> <Curation/DataSource>
US Patent

> <Article DOI>
?

> <PMID>
?

> <Patent Number>
US10815215; US11130745

> <Authors>
Gradl, SN; Nguyen, D; Eis, K; Gunther, J; Stellfeld, T; Janzer, A; Christian, S; Muller, T; Sheikh, SE; Zhou, HJ; Zhao, C; Sykes, DB; Ferrara, SJ; Liu, K; Krober, M; Merz, C; Niehues, M; Schafer, M; Zimmermann, K; Nising, CF; Gradl, SN; Nguyen, D; Eis, K; Gunther, J; Stellfeld, T; Janzer, A; Christian, S; Muller, T; Sheikh, SE; Sykes, DB; Ferrara, SJ; Krober, M; Merz, C; Niehues, M; Schafer, M; Zimmermann, K; Nising, CF

> <Link to Ligand in BindingDB>
http://www.bindingdb.org/bind/chemsearch/marvin/MolStructure.jsp?monomerid=470524

> <Link to Ligand-Target Pair in BindingDB>
http://www.bindingdb.org/jsp/dbsearch/PrimarySearch_ki.jsp?energyterm=kJ/mole&tag=r21&monomerid=470524&enzyme=Dihydroorotate+dehydrogenase&column=ki&startPg=0&Increment=50&submit=Search

> <PubChem CID>
134470281

> <PubChem SID>
441609700

$$$$

  Mrv2115 07222212352D          

 36 39  0  0  0  0            999 V2000
   -5.5784   -3.5558    0.0000 C   0  0  0  0  0  0  0  0  0  0  0  0
   -5.1659   -2.8414    0.0000 O   0  0  0  0  0  0  0  0  0  0  0  0
   -5.5784   -2.1269    0.0000 C   0  0  0  0  0  0  0  0  0  0  0  0
   -6.4034   -2.1269    0.0000 N   0  0  0  0  0  0  0  0  0  0  0  0
   -6.8159   -1.4124    0.0000 C   0  0  0  0  0  0  0  0  0  0  0  0
   -6.4034   -0.6979    0.0000 C   0  0  0  0  0  0  0  0  0  0  0  0
   -5.5784   -0.6979    0.0000 C   0  0  0  0  0  0  0  0  0  0  0  0
   -5.1659    0.0165    0.0000 C   0  0  0  0  0  0  0  0  0  0  0  0
   -5.1659   -1.4124    0.0000 C   0  0  0  0  0  0  0  0  0  0  0  0
   -4.3409   -1.4124    0.0000 N   0  0  0  0  0  0  0  0  0  0  0  0
   -3.9284   -0.6979    0.0000 C   0  0  0  0  0  0  0  0  0  0  0  0
   -4.3409    0.0165    0.0000 O   0  0  0  0  0  0  0  0  0  0  0  0
   -3.1034   -0.6979    0.0000 C   0  0  0  0  0  0  0  0  0  0  0  0
   -2.6909    0.0165    0.0000 C   0  0  0  0  0  0  0  0  0  0  0  0
   -1.8659    0.0165    0.0000 C   0  0  0  0  0  0  0  0  0  0  0  0
   -1.4534    0.7310    0.0000 F   0  0  0  0  0  0  0  0  0  0  0  0
   -1.4534   -0.6979    0.0000 C   0  0  0  0  0  0  0  0  0  0  0  0
   -0.6284   -0.6979    0.0000 N   0  0  0  0  0  0  0  0  0  0  0  0
   -0.1435   -1.3654    0.0000 N   0  0  0  0  0  0  0  0  0  0  0  0
    0.6411   -1.1104    0.0000 C   0  0  0  0  0  0  0  0  0  0  0  0
    0.6411   -0.2854    0.0000 N   0  0  0  0  0  0  0  0  0  0  0  0
   -0.1435   -0.0305    0.0000 C   0  0  0  0  0  0  0  0  0  0  0  0
   -0.3984    0.7541    0.0000 O   0  0  0  0  0  0  0  0  0  0  0  0
    1.3556    0.1271    0.0000 C   0  0  0  0  0  0  0  0  0  0  0  0
    2.0701   -0.2854    0.0000 C   0  0  0  0  0  0  0  0  0  0  0  0
    2.0701   -1.1104    0.0000 C   0  0  0  0  0  0  0  0  0  0  0  0
    1.3556   -1.5229    0.0000 C   0  0  0  0  0  0  0  0  0  0  0  0
   -1.8659   -1.4124    0.0000 C   0  0  0  0  0  0  0  0  0  0  0  0
   -2.6909   -1.4124    0.0000 C   0  0  0  0  0  0  0  0  0  0  0  0
   -3.1034   -2.1269    0.0000 O   0  0  0  0  0  0  0  0  0  0  0  0
   -2.6909   -2.8414    0.0000 C   0  0  0  0  0  0  0  0  0  0  0  0
   -1.8659   -2.8414    0.0000 C   0  0  0  0  0  0  0  0  0  0  0  0
   -3.1034   -3.5558    0.0000 C   0  0  0  0  0  0  0  0  0  0  0  0
   -2.6909   -4.2703    0.0000 N   0  0  0  0  0  0  0  0  0  0  0  0
   -1.8659   -4.2703    0.0000 C   0  0  0  0  0  0  0  0  0  0  0  0
   -3.1034   -4.9848    0.0000 C   0  0  0  0  0  0  0  0  0  0  0  0
  1  2  1  0  0  0  0
  2  3  1  0  0  0  0
  3  4  4  0  0  0  0
  4  5  4  0  0  0  0
  5  6  4  0  0  0  0
  6  7  4  0  0  0  0
  7  8  1  0  0  0  0
  7  9  4  0  0  0  0
  3  9  4  0  0  0  0
  9 10  1  0  0  0  0
 10 11  1  0  0  0  0
 11 12  2  0  0  0  0
 11 13  1  0  0  0  0
 13 14  4  0  0  0  0
 14 15  4  0  0  0  0
 15 16  1  0  0  0  0
 15 17  4  0  0  0  0
 17 18  1  0  0  0  0
 18 19  4  0  0  0  0
 19 20  4  0  0  0  0
 20 21  4  0  0  0  0
 21 22  4  0  0  0  0
 18 22  4  0  0  0  0
 22 23  2  0  0  0  0
 21 24  1  0  0  0  0
 24 25  1  0  0  0  0
 25 26  1  0  0  0  0
 26 27  1  0  0  0  0
 20 27  1  0  0  0  0
 17 28  4  0  0  0  0
 28 29  4  0  0  0  0
 13 29  4  0  0  0  0
 29 30  1  0  0  0  0
 30 31  1  0  0  0  0
 31 32  1  0  0  0  0
 31 33  1  0  0  0  0
 33 34  1  0  0  0  0
 34 35  1  0  0  0  0
 34 36  1  0  0  0  0
M  END
> <IC50(uM)>
0.08

> <Outcome>
1.0

> <BindingDB ID>
1020681

> <BindingDB MonomerID>
490607

> <BindingDB Ligand Name>
2-{[(2S)-1-(dimethylamino)propan-2-yl]oxy}-5-fluoro-N-(2-methoxy-4-methylpyridin-3-yl)-4-(3-oxo-5,6,7,8-tetrahydro[1,2,4]triazolo[4,3-a]pyridin-2(3H)-yl)benzamide::US10968216, Example 275

> <Curation/DataSource>
US Patent

> <Article DOI>
?

> <PMID>
?

> <Patent Number>
US10968216

> <Authors>
Gradl, SN; Nguyen, D; Eis, K; Gunther, J; Stellfeld, T; Janzer, A; Christian, S; Mueller, T; Sheikh, SE; Zhou, HJ; Zhao, C; Sykes, DB; Ferrara, SJ; Liu, K; Herbert, SA; Merz, C; Niehues, M; Nising, CF; Schafer, M; Zimmermann, K; Knablein, J; Thede, K; Faupel, T

> <Link to Ligand in BindingDB>
http://www.bindingdb.org/bind/chemsearch/marvin/MolStructure.jsp?monomerid=490607

> <Link to Ligand-Target Pair in BindingDB>
http://www.bindingdb.org/jsp/dbsearch/PrimarySearch_ki.jsp?energyterm=kJ/mole&tag=r21&monomerid=490607&enzyme=Dihydroorotate+dehydrogenase&column=ki&startPg=0&Increment=50&submit=Search

> <PubChem CID>
134474081

> <PubChem SID>
447117333

$$$$

  Mrv2115 07222212352D          

 24 26  0  0  0  0            999 V2000
    0.7145   -2.8875    0.0000 C   0  0  0  0  0  0  0  0  0  0  0  0
    1.4289   -2.4750    0.0000 C   0  0  0  0  0  0  0  0  0  0  0  0
    2.1434   -2.8875    0.0000 C   0  0  0  0  0  0  0  0  0  0  0  0
    1.4289   -1.6500    0.0000 C   0  0  0  0  0  0  0  0  0  0  0  0
    0.7145   -1.2375    0.0000 C   0  0  0  0  0  0  0  0  0  0  0  0
    0.7145   -0.4125    0.0000 C   0  0  0  0  0  0  0  0  0  0  0  0
    1.4289    0.0000    0.0000 C   0  0  0  0  0  0  0  0  0  0  0  0
    2.1434   -0.4125    0.0000 C   0  0  0  0  0  0  0  0  0  0  0  0
    2.8579    0.0000    0.0000 C   0  0  0  0  0  0  0  0  0  0  0  0
    2.8579    0.8250    0.0000 C   0  0  0  0  0  0  0  0  0  0  0  0
    3.5724    1.2375    0.0000 O   0  0  0  0  0  0  0  0  0  0  0  0
    2.1434    1.2375    0.0000 O   0  0  0  0  0  0  0  0  0  0  0  0
    3.5724   -0.4125    0.0000 C   0  0  0  0  0  0  0  0  0  0  0  0
    4.2868   -0.0000    0.0000 O   0  0  0  0  0  0  0  0  0  0  0  0
    3.5724   -1.2375    0.0000 C   0  0  0  0  0  0  0  0  0  0  0  0
    4.2868   -1.6500    0.0000 C   0  0  0  0  0  0  0  0  0  0  0  0
    5.0013   -1.2375    0.0000 C   0  0  0  0  0  0  0  0  0  0  0  0
    5.7158   -1.6500    0.0000 C   0  0  0  0  0  0  0  0  0  0  0  0
    5.7158   -2.4750    0.0000 C   0  0  0  0  0  0  0  0  0  0  0  0
    6.4302   -2.8875    0.0000 Cl  0  0  0  0  0  0  0  0  0  0  0  0
    5.0013   -2.8875    0.0000 C   0  0  0  0  0  0  0  0  0  0  0  0
    4.2868   -2.4750    0.0000 C   0  0  0  0  0  0  0  0  0  0  0  0
    2.8579   -1.6500    0.0000 N   0  0  0  0  0  0  0  0  0  0  0  0
    2.1434   -1.2375    0.0000 C   0  0  0  0  0  0  0  0  0  0  0  0
  1  2  1  0  0  0  0
  2  3  1  0  0  0  0
  2  4  1  0  0  0  0
  4  5  4  0  0  0  0
  5  6  4  0  0  0  0
  6  7  4  0  0  0  0
  7  8  4  0  0  0  0
  8  9  4  0  0  0  0
  9 10  1  0  0  0  0
 10 11  2  0  0  0  0
 10 12  1  0  0  0  0
  9 13  4  0  0  0  0
 13 14  1  0  0  0  0
 13 15  4  0  0  0  0
 15 16  1  0  0  0  0
 16 17  4  0  0  0  0
 17 18  4  0  0  0  0
 18 19  4  0  0  0  0
 19 20  1  0  0  0  0
 19 21  4  0  0  0  0
 21 22  4  0  0  0  0
 16 22  4  0  0  0  0
 15 23  4  0  0  0  0
 23 24  4  0  0  0  0
  4 24  4  0  0  0  0
  8 24  4  0  0  0  0
M  END
> <IC50(uM)>
283.0

> <Outcome>
0.0

> <BindingDB ID>
50841926

> <BindingDB MonomerID>
50201928

> <BindingDB Ligand Name>
2-(4-chlorophenyl)-3-hydroxy-8-isopropylquinoline-4-carboxylicacid::CHEMBL218780

> <Curation/DataSource>
ChEMBL

> <Article DOI>
10.1021/jm0602256

> <PMID>
17201408

> <Patent Number>
?

> <Authors>
Kaila, N; Janz, K; DeBernardo, S; Bedard, PW; Camphausen, RT; Tam, S; Tsao, DH; Keith, JC; Nickerson-Nutter, C; Shilling, A; Young-Sciame, R; Wang, Q

> <Link to Ligand in BindingDB>
http://www.bindingdb.org/bind/chemsearch/marvin/MolStructure.jsp?monomerid=50201928

> <Link to Ligand-Target Pair in BindingDB>
http://www.bindingdb.org/jsp/dbsearch/PrimarySearch_ki.jsp?energyterm=kJ/mole&tag=r21&monomerid=50201928&enzyme=Dihydroorotate+dehydrogenase&column=ki&startPg=0&Increment=50&submit=Search

> <PubChem CID>
16099919

> <PubChem SID>
104081579

$$$$

  Mrv2115 07222212352D          

 32 34  0  0  0  0            999 V2000
    1.2680   -4.3676    0.0000 C   0  0  0  0  0  0  0  0  0  0  0  0
    1.9825   -4.7801    0.0000 C   0  0  0  0  0  0  0  0  0  0  0  0
    2.6969   -4.3676    0.0000 C   0  0  0  0  0  0  0  0  0  0  0  0
    3.4114   -4.7801    0.0000 C   0  0  0  0  0  0  0  0  0  0  0  0
    3.4114   -5.6051    0.0000 C   0  0  0  0  0  0  0  0  0  0  0  0
    4.1259   -4.3676    0.0000 O   0  0  0  0  0  0  0  0  0  0  0  0
    4.1259   -3.5426    0.0000 C   0  0  0  0  0  0  0  0  0  0  0  0
    3.4114   -3.1301    0.0000 C   0  0  0  0  0  0  0  0  0  0  0  0
    3.4114   -2.3051    0.0000 C   0  0  0  0  0  0  0  0  0  0  0  0
    2.6969   -1.8926    0.0000 N   0  0  0  0  0  0  0  0  0  0  0  0
    1.9432   -2.2281    0.0000 N   0  0  0  0  0  0  0  0  0  0  0  0
    1.3912   -1.6150    0.0000 C   0  0  0  0  0  0  0  0  0  0  0  0
    0.5707   -1.7013    0.0000 C   0  0  0  0  0  0  0  0  0  0  0  0
    0.2352   -2.4550    0.0000 C   0  0  0  0  0  0  0  0  0  0  0  0
    1.8037   -0.9006    0.0000 N   0  0  0  0  0  0  0  0  0  0  0  0
    1.4682   -0.1469    0.0000 C   0  0  0  0  0  0  0  0  0  0  0  0
    2.6107   -1.0721    0.0000 C   0  0  0  0  0  0  0  0  0  0  0  0
    3.2238   -0.5201    0.0000 O   0  0  0  0  0  0  0  0  0  0  0  0
    4.1259   -1.8926    0.0000 C   0  0  0  0  0  0  0  0  0  0  0  0
    4.1259   -1.0676    0.0000 F   0  0  0  0  0  0  0  0  0  0  0  0
    4.8403   -2.3051    0.0000 C   0  0  0  0  0  0  0  0  0  0  0  0
    4.8403   -3.1301    0.0000 C   0  0  0  0  0  0  0  0  0  0  0  0
    5.5548   -3.5426    0.0000 C   0  0  0  0  0  0  0  0  0  0  0  0
    5.5548   -4.3676    0.0000 O   0  0  0  0  0  0  0  0  0  0  0  0
    6.2693   -3.1301    0.0000 N   0  0  0  0  0  0  0  0  0  0  0  0
    6.9837   -3.5426    0.0000 C   0  0  0  0  0  0  0  0  0  0  0  0
    7.6654   -3.0778    0.0000 C   0  0  0  0  0  0  0  0  0  0  0  0
    8.4537   -3.3210    0.0000 C   0  0  0  0  0  0  0  0  0  0  0  0
    8.7551   -4.0890    0.0000 C   0  0  0  0  0  0  0  0  0  0  0  0
    8.3426   -4.8035    0.0000 C   0  0  0  0  0  0  0  0  0  0  0  0
    7.5269   -4.9264    0.0000 C   0  0  0  0  0  0  0  0  0  0  0  0
    6.9221   -4.3653    0.0000 C   0  0  0  0  0  0  0  0  0  0  0  0
  1  2  1  0  0  0  0
  2  3  1  0  0  0  0
  3  4  1  0  0  0  0
  4  5  1  0  0  0  0
  4  6  1  0  0  0  0
  6  7  1  0  0  0  0
  7  8  4  0  0  0  0
  8  9  4  0  0  0  0
  9 10  1  0  0  0  0
 10 11  4  0  0  0  0
 11 12  4  0  0  0  0
 12 13  1  0  0  0  0
 13 14  1  0  0  0  0
 12 15  4  0  0  0  0
 15 16  1  0  0  0  0
 15 17  4  0  0  0  0
 10 17  4  0  0  0  0
 17 18  2  0  0  0  0
  9 19  4  0  0  0  0
 19 20  1  0  0  0  0
 19 21  4  0  0  0  0
 21 22  4  0  0  0  0
  7 22  4  0  0  0  0
 22 23  1  0  0  0  0
 23 24  2  0  0  0  0
 23 25  1  0  0  0  0
 25 26  1  0  0  0  0
 26 27  1  0  0  0  0
 27 28  1  0  0  0  0
 28 29  1  0  0  0  0
 29 30  1  0  0  0  0
 30 31  1  0  0  0  0
 31 32  1  0  0  0  0
 26 32  1  0  0  0  0
M  END
> <IC50(uM)>
0.0413

> <Outcome>
1.0

> <BindingDB ID>
1098636; 972482; 1098637; 972483

> <BindingDB MonomerID>
470368

> <BindingDB Ligand Name>
N-cycloheptyl-4-(3-ethyl-4-methyl-5-oxo-4,5-dihydro-1H-1,2,4-triazol-1-yl)-5-fluoro-2-[(2S)-pentan-2-yloxy]benzamide::US10815215, Example 28::US11130745, Example 28; N-cycloheptyl-4-(3-ethyl-4-methyl-5-oxo-4,5-dihydro-1H-1,2,4-triazol-1-yl)-5-fluoro-2-[(2S)-pentan-2-yloxy]benzamide::US10815215, Example 28

> <Curation/DataSource>
US Patent

> <Article DOI>
?

> <PMID>
?

> <Patent Number>
US11130745; US10815215

> <Authors>
Gradl, SN; Nguyen, D; Eis, K; Gunther, J; Stellfeld, T; Janzer, A; Christian, S; Muller, T; Sheikh, SE; Sykes, DB; Ferrara, SJ; Krober, M; Merz, C; Niehues, M; Schafer, M; Zimmermann, K; Nising, CF; Gradl, SN; Nguyen, D; Eis, K; Gunther, J; Stellfeld, T; Janzer, A; Christian, S; Muller, T; Sheikh, SE; Zhou, HJ; Zhao, C; Sykes, DB; Ferrara, SJ; Liu, K; Krober, M; Merz, C; Niehues, M; Schafer, M; Zimmermann, K; Nising, CF

> <Link to Ligand in BindingDB>
http://www.bindingdb.org/bind/chemsearch/marvin/MolStructure.jsp?monomerid=470368

> <Link to Ligand-Target Pair in BindingDB>
http://www.bindingdb.org/jsp/dbsearch/PrimarySearch_ki.jsp?energyterm=kJ/mole&tag=r21&monomerid=470368&enzyme=Dihydroorotate+dehydrogenase&column=ki&startPg=0&Increment=50&submit=Search

> <PubChem CID>
134470132

> <PubChem SID>
441609545

$$$$

  Mrv2115 07222212352D          

 33 37  0  0  0  0            999 V2000
    4.0681   -6.1889    0.0000 C   0  0  0  0  0  0  0  0  0  0  0  0
    3.8131   -5.4042    0.0000 O   0  0  0  0  0  0  0  0  0  0  0  0
    4.3652   -4.7911    0.0000 C   0  0  0  0  0  0  0  0  0  0  0  0
    4.1102   -4.0065    0.0000 C   0  0  0  0  0  0  0  0  0  0  0  0
    4.6623   -3.3934    0.0000 C   0  0  0  0  0  0  0  0  0  0  0  0
    4.4073   -2.6088    0.0000 C   0  0  0  0  0  0  0  0  0  0  0  0
    3.6004   -2.4373    0.0000 C   0  0  0  0  0  0  0  0  0  0  0  0
    3.3454   -1.6527    0.0000 C   0  0  0  0  0  0  0  0  0  0  0  0
    3.8974   -1.0396    0.0000 C   0  0  0  0  0  0  0  0  0  0  0  0
    3.6425   -0.2549    0.0000 N   0  0  0  0  0  0  0  0  0  0  0  0
    4.1274    0.4125    0.0000 N   0  0  0  0  0  0  0  0  0  0  0  0
    3.6425    1.0799    0.0000 N   0  0  0  0  0  0  0  0  0  0  0  0
    2.8579    0.8250    0.0000 C   0  0  0  0  0  0  0  0  0  0  0  0
    2.8579    0.0000    0.0000 C   0  0  0  0  0  0  0  0  0  0  0  0
    2.1434   -0.4125    0.0000 C   0  0  0  0  0  0  0  0  0  0  0  0
    2.1434   -1.2375    0.0000 O   0  0  0  0  0  0  0  0  0  0  0  0
    1.4289   -0.0000    0.0000 C   0  0  0  0  0  0  0  0  0  0  0  0
    0.7145   -0.4125    0.0000 C   0  0  0  0  0  0  0  0  0  0  0  0
   -0.0000    0.0000    0.0000 C   0  0  0  0  0  0  0  0  0  0  0  0
    0.0000    0.8250    0.0000 C   0  0  0  0  0  0  0  0  0  0  0  0
    0.7145    1.2375    0.0000 C   0  0  0  0  0  0  0  0  0  0  0  0
    1.4289    0.8250    0.0000 C   0  0  0  0  0  0  0  0  0  0  0  0
    2.1434    1.2375    0.0000 C   0  0  0  0  0  0  0  0  0  0  0  0
    2.1434    2.0625    0.0000 O   0  0  0  0  0  0  0  0  0  0  0  0
    4.7044   -1.2111    0.0000 C   0  0  0  0  0  0  0  0  0  0  0  0
    4.9594   -1.9957    0.0000 C   0  0  0  0  0  0  0  0  0  0  0  0
    5.4692   -3.5650    0.0000 C   0  0  0  0  0  0  0  0  0  0  0  0
    5.7242   -4.3496    0.0000 C   0  0  0  0  0  0  0  0  0  0  0  0
    6.5311   -4.5211    0.0000 O   0  0  0  0  0  0  0  0  0  0  0  0
    6.7861   -5.3057    0.0000 C   0  0  0  0  0  0  0  0  0  0  0  0
    5.1721   -4.9627    0.0000 C   0  0  0  0  0  0  0  0  0  0  0  0
    5.4271   -5.7473    0.0000 O   0  0  0  0  0  0  0  0  0  0  0  0
    6.2341   -5.9188    0.0000 C   0  0  0  0  0  0  0  0  0  0  0  0
  1  2  1  0  0  0  0
  2  3  1  0  0  0  0
  3  4  4  0  0  0  0
  4  5  4  0  0  0  0
  5  6  1  0  0  0  0
  6  7  4  0  0  0  0
  7  8  4  0  0  0  0
  8  9  4  0  0  0  0
  9 10  1  0  0  0  0
 10 11  4  0  0  0  0
 11 12  4  0  0  0  0
 12 13  4  0  0  0  0
 13 14  4  0  0  0  0
 10 14  4  0  0  0  0
 14 15  1  0  0  0  0
 15 16  2  0  0  0  0
 15 17  1  0  0  0  0
 17 18  4  0  0  0  0
 18 19  4  0  0  0  0
 19 20  4  0  0  0  0
 20 21  4  0  0  0  0
 21 22  4  0  0  0  0
 17 22  4  0  0  0  0
 22 23  1  0  0  0  0
 13 23  1  0  0  0  0
 23 24  2  0  0  0  0
  9 25  4  0  0  0  0
 25 26  4  0  0  0  0
  6 26  4  0  0  0  0
  5 27  4  0  0  0  0
 27 28  4  0  0  0  0
 28 29  1  0  0  0  0
 29 30  1  0  0  0  0
 28 31  4  0  0  0  0
  3 31  4  0  0  0  0
 31 32  1  0  0  0  0
 32 33  1  0  0  0  0
M  END
> <IC50(uM)>
1.0

> <Outcome>
1.0

> <BindingDB ID>
51338191

> <BindingDB MonomerID>
50541665

> <BindingDB Ligand Name>
CHEMBL4649058

> <Curation/DataSource>
ChEMBL

> <Article DOI>
10.1021/acs.jmedchem.0c00512

> <PMID>
32496056

> <Patent Number>
?

> <Authors>
Zuo, Z; Liu, X; Qian, X; Zeng, T; Sang, N; Liu, H; Zhou, Y; Tao, L; Zhou, X; Su, N; Yu, Y; Chen, Q; Luo, Y; Zhao, Y

> <Link to Ligand in BindingDB>
http://www.bindingdb.org/bind/chemsearch/marvin/MolStructure.jsp?monomerid=50541665

> <Link to Ligand-Target Pair in BindingDB>
http://www.bindingdb.org/jsp/dbsearch/PrimarySearch_ki.jsp?energyterm=kJ/mole&tag=r21&monomerid=50541665&enzyme=Dihydroorotate+dehydrogenase&column=ki&startPg=0&Increment=50&submit=Search

> <PubChem CID>
156020965

> <PubChem SID>
442143228

$$$$

  Mrv2115 07222212352D          

 28 31  0  0  0  0            999 V2000
    4.0668    2.3479    0.0000 C   0  0  0  0  0  0  0  0  0  0  0  0
    3.3523    1.9354    0.0000 C   0  0  0  0  0  0  0  0  0  0  0  0
    3.3523    1.1104    0.0000 C   0  0  0  0  0  0  0  0  0  0  0  0
    2.6378    0.6979    0.0000 C   0  0  0  0  0  0  0  0  0  0  0  0
    2.6378   -0.1271    0.0000 C   0  0  0  0  0  0  0  0  0  0  0  0
    1.9233   -0.5396    0.0000 O   0  0  0  0  0  0  0  0  0  0  0  0
    3.3523   -0.5396    0.0000 O   0  0  0  0  0  0  0  0  0  0  0  0
    1.9233    1.1104    0.0000 C   0  0  0  0  0  0  0  0  0  0  0  0
    1.1387    0.8555    0.0000 N   0  0  0  0  0  0  0  0  0  0  0  0
    0.6538    1.5229    0.0000 C   0  0  0  0  0  0  0  0  0  0  0  0
   -0.1712    1.5229    0.0000 C   0  0  0  0  0  0  0  0  0  0  0  0
   -0.5837    0.8085    0.0000 C   0  0  0  0  0  0  0  0  0  0  0  0
   -0.1712    0.0940    0.0000 F   0  0  0  0  0  0  0  0  0  0  0  0
   -1.4087    0.8085    0.0000 C   0  0  0  0  0  0  0  0  0  0  0  0
   -1.8212    0.0940    0.0000 F   0  0  0  0  0  0  0  0  0  0  0  0
   -1.8212    1.5229    0.0000 C   0  0  0  0  0  0  0  0  0  0  0  0
   -2.6462    1.5229    0.0000 C   0  0  0  0  0  0  0  0  0  0  0  0
   -3.1311    0.8555    0.0000 C   0  0  0  0  0  0  0  0  0  0  0  0
   -3.9157    1.1104    0.0000 C   0  0  0  0  0  0  0  0  0  0  0  0
   -3.9157    1.9354    0.0000 S   0  0  0  0  0  0  0  0  0  0  0  0
   -3.1311    2.1904    0.0000 C   0  0  0  0  0  0  0  0  0  0  0  0
   -1.4087    2.2374    0.0000 C   0  0  0  0  0  0  0  0  0  0  0  0
   -1.8212    2.9519    0.0000 F   0  0  0  0  0  0  0  0  0  0  0  0
   -0.5837    2.2374    0.0000 C   0  0  0  0  0  0  0  0  0  0  0  0
   -0.1712    2.9519    0.0000 F   0  0  0  0  0  0  0  0  0  0  0  0
    1.1387    2.1904    0.0000 N   0  0  0  0  0  0  0  0  0  0  0  0
    1.9233    1.9354    0.0000 C   0  0  0  0  0  0  0  0  0  0  0  0
    2.6378    2.3479    0.0000 C   0  0  0  0  0  0  0  0  0  0  0  0
  1  2  1  0  0  0  0
  2  3  4  0  0  0  0
  3  4  4  0  0  0  0
  4  5  1  0  0  0  0
  5  6  2  0  0  0  0
  5  7  1  0  0  0  0
  4  8  4  0  0  0  0
  8  9  4  0  0  0  0
  9 10  4  0  0  0  0
 10 11  1  0  0  0  0
 11 12  4  0  0  0  0
 12 13  1  0  0  0  0
 12 14  4  0  0  0  0
 14 15  1  0  0  0  0
 14 16  4  0  0  0  0
 16 17  1  0  0  0  0
 17 18  4  0  0  0  0
 18 19  4  0  0  0  0
 19 20  4  0  0  0  0
 20 21  4  0  0  0  0
 17 21  4  0  0  0  0
 16 22  4  0  0  0  0
 22 23  1  0  0  0  0
 22 24  4  0  0  0  0
 11 24  4  0  0  0  0
 24 25  1  0  0  0  0
 10 26  4  0  0  0  0
 26 27  4  0  0  0  0
  8 27  4  0  0  0  0
 27 28  4  0  0  0  0
  2 28  4  0  0  0  0
M  STY  1   1 DAT
M  SAL   1  1  26
M  SDT   1 MRV_IMPLICIT_H                                        
M  SDD   1     0.5304   -0.4125    DR    ALL  0       0  
M  SED   1 IMPL_H1
M  END
> <IC50(uM)>
0.05

> <Outcome>
1.0

> <BindingDB ID>
297841

> <BindingDB MonomerID>
155497

> <BindingDB Ligand Name>
US9006454, I139

> <Curation/DataSource>
US Patent

> <Article DOI>
?

> <PMID>
?

> <Patent Number>
US9006454

> <Authors>
Thunuguntla, SS; Subramanya, H; Kunnam, SR; Sanivaru Vijay, SR; Bingi, C; Kusanur, R; Schwarz, M; Arlt, M

> <Link to Ligand in BindingDB>
http://www.bindingdb.org/bind/chemsearch/marvin/MolStructure.jsp?monomerid=155497

> <Link to Ligand-Target Pair in BindingDB>
http://www.bindingdb.org/jsp/dbsearch/PrimarySearch_ki.jsp?energyterm=kJ/mole&tag=r21&monomerid=155497&enzyme=Dihydroorotate+dehydrogenase&column=ki&startPg=0&Increment=50&submit=Search

> <PubChem CID>
58073793

> <PubChem SID>
253658434

$$$$

  Mrv2115 07222212352D          

 28 31  0  0  0  0            999 V2000
    1.1809   -3.5477    0.0000 C   0  0  0  0  0  0  0  0  0  0  0  0
    0.3739   -3.7192    0.0000 C   0  0  0  0  0  0  0  0  0  0  0  0
    0.1190   -4.5039    0.0000 C   0  0  0  0  0  0  0  0  0  0  0  0
   -0.6880   -4.6754    0.0000 C   0  0  0  0  0  0  0  0  0  0  0  0
   -0.9429   -5.4600    0.0000 O   0  0  0  0  0  0  0  0  0  0  0  0
   -1.7499   -5.6315    0.0000 C   0  0  0  0  0  0  0  0  0  0  0  0
   -2.0049   -6.4162    0.0000 C   0  0  0  0  0  0  0  0  0  0  0  0
   -2.8118   -6.5877    0.0000 C   0  0  0  0  0  0  0  0  0  0  0  0
   -3.3639   -5.9746    0.0000 C   0  0  0  0  0  0  0  0  0  0  0  0
   -3.1089   -5.1900    0.0000 C   0  0  0  0  0  0  0  0  0  0  0  0
   -2.3020   -5.0184    0.0000 C   0  0  0  0  0  0  0  0  0  0  0  0
   -1.2400   -4.0623    0.0000 C   0  0  0  0  0  0  0  0  0  0  0  0
   -2.0470   -4.2338    0.0000 C   0  0  0  0  0  0  0  0  0  0  0  0
   -0.9851   -3.2777    0.0000 C   0  0  0  0  0  0  0  0  0  0  0  0
   -0.1781   -3.1062    0.0000 C   0  0  0  0  0  0  0  0  0  0  0  0
    0.0768   -2.3215    0.0000 N   0  0  0  0  0  0  0  0  0  0  0  0
    0.8838   -2.1500    0.0000 C   0  0  0  0  0  0  0  0  0  0  0  0
    1.4358   -2.7631    0.0000 O   0  0  0  0  0  0  0  0  0  0  0  0
    1.1387   -1.3654    0.0000 C   0  0  0  0  0  0  0  0  0  0  0  0
    0.6538   -0.6979    0.0000 C   0  0  0  0  0  0  0  0  0  0  0  0
   -0.1712   -0.6979    0.0000 O   0  0  0  0  0  0  0  0  0  0  0  0
    1.1387   -0.0305    0.0000 N   0  0  0  0  0  0  0  0  0  0  0  0
    1.9233   -0.2854    0.0000 N   0  0  0  0  0  0  0  0  0  0  0  0
    2.6378    0.1271    0.0000 C   0  0  0  0  0  0  0  0  0  0  0  0
    3.3523   -0.2854    0.0000 C   0  0  0  0  0  0  0  0  0  0  0  0
    3.3523   -1.1104    0.0000 C   0  0  0  0  0  0  0  0  0  0  0  0
    2.6378   -1.5229    0.0000 C   0  0  0  0  0  0  0  0  0  0  0  0
    1.9233   -1.1104    0.0000 C   0  0  0  0  0  0  0  0  0  0  0  0
  1  2  1  0  0  0  0
  2  3  4  0  0  0  0
  3  4  4  0  0  0  0
  4  5  1  0  0  0  0
  5  6  1  0  0  0  0
  6  7  4  0  0  0  0
  7  8  4  0  0  0  0
  8  9  4  0  0  0  0
  9 10  4  0  0  0  0
 10 11  4  0  0  0  0
  6 11  4  0  0  0  0
  4 12  4  0  0  0  0
 12 13  1  0  0  0  0
 12 14  4  0  0  0  0
 14 15  4  0  0  0  0
  2 15  4  0  0  0  0
 15 16  1  0  0  0  0
 16 17  1  0  0  0  0
 17 18  2  0  0  0  0
 17 19  1  0  0  0  0
 19 20  4  0  0  0  0
 20 21  1  0  0  0  0
 20 22  4  0  0  0  0
 22 23  4  0  0  0  0
 23 24  4  0  0  0  0
 24 25  4  0  0  0  0
 25 26  4  0  0  0  0
 26 27  4  0  0  0  0
 27 28  4  0  0  0  0
 19 28  4  0  0  0  0
 23 28  4  0  0  0  0
M  END
> <IC50(uM)>
0.043

> <Outcome>
1.0

> <BindingDB ID>
50990486

> <BindingDB MonomerID>
50281172

> <BindingDB Ligand Name>
CHEMBL4165815

> <Curation/DataSource>
ChEMBL

> <Article DOI>
10.1021/acs.jmedchem.8b00373

> <PMID>
29939742

> <Patent Number>
?

> <Authors>
Sainas, S; Pippione, AC; Lupino, E; Giorgis, M; Circosta, P; Gaidano, V; Goyal, P; Bonanni, D; Rolando, B; Cignetti, A; Ducime, A; Andersson, M; J??rv??, M; Friemann, R; Piccinini, M; Ramondetti, C; Buccinn??, B; Al-Karadaghi, S; Boschi, D; Saglio, G; Lolli, ML

> <Link to Ligand in BindingDB>
http://www.bindingdb.org/bind/chemsearch/marvin/MolStructure.jsp?monomerid=50281172

> <Link to Ligand-Target Pair in BindingDB>
http://www.bindingdb.org/jsp/dbsearch/PrimarySearch_ki.jsp?energyterm=kJ/mole&tag=r21&monomerid=50281172&enzyme=Dihydroorotate+dehydrogenase&column=ki&startPg=0&Increment=50&submit=Search

> <PubChem CID>
145954937

> <PubChem SID>
104122876

$$$$

  Mrv2115 07222212352D          

 32 36  0  0  0  0            999 V2000
   -0.1712   -0.6979    0.0000 C   0  0  0  0  0  0  0  0  0  0  0  0
    0.6538   -0.6979    0.0000 N   0  0  0  0  0  0  0  0  0  0  0  0
    1.1387   -0.0305    0.0000 N   0  0  0  0  0  0  0  0  0  0  0  0
    1.9233   -0.2854    0.0000 C   0  0  0  0  0  0  0  0  0  0  0  0
    2.6378    0.1271    0.0000 C   0  0  0  0  0  0  0  0  0  0  0  0
    3.3523   -0.2854    0.0000 C   0  0  0  0  0  0  0  0  0  0  0  0
    4.0668    0.1271    0.0000 C   0  0  0  0  0  0  0  0  0  0  0  0
    4.0668    0.9521    0.0000 C   0  0  0  0  0  0  0  0  0  0  0  0
    4.7812    1.3646    0.0000 C   0  0  0  0  0  0  0  0  0  0  0  0
    5.4957    0.9521    0.0000 C   0  0  0  0  0  0  0  0  0  0  0  0
    6.2102    1.3646    0.0000 C   0  0  0  0  0  0  0  0  0  0  0  0
    6.2102    2.1896    0.0000 C   0  0  0  0  0  0  0  0  0  0  0  0
    6.9246    2.6021    0.0000 C   0  0  0  0  0  0  0  0  0  0  0  0
    7.6391    2.1896    0.0000 C   0  0  0  0  0  0  0  0  0  0  0  0
    7.6391    1.3646    0.0000 C   0  0  0  0  0  0  0  0  0  0  0  0
    8.3536    0.9521    0.0000 C   0  0  0  0  0  0  0  0  0  0  0  0
    8.3536    0.1271    0.0000 N   0  0  0  0  0  0  0  0  0  0  0  0
    9.0681   -0.2854    0.0000 C   0  0  0  0  0  0  0  0  0  0  0  0
    9.0681   -1.1104    0.0000 C   0  0  0  0  0  0  0  0  0  0  0  0
    8.3536   -1.5229    0.0000 O   0  0  0  0  0  0  0  0  0  0  0  0
    7.6391   -1.1104    0.0000 C   0  0  0  0  0  0  0  0  0  0  0  0
    7.6391   -0.2854    0.0000 C   0  0  0  0  0  0  0  0  0  0  0  0
    6.9246    0.9521    0.0000 C   0  0  0  0  0  0  0  0  0  0  0  0
    5.4957    0.1271    0.0000 C   0  0  0  0  0  0  0  0  0  0  0  0
    4.7812   -0.2854    0.0000 C   0  0  0  0  0  0  0  0  0  0  0  0
    3.3523   -1.1104    0.0000 C   0  0  0  0  0  0  0  0  0  0  0  0
    2.6378   -1.5229    0.0000 C   0  0  0  0  0  0  0  0  0  0  0  0
    2.6378   -2.3479    0.0000 C   0  0  0  0  0  0  0  0  0  0  0  0
    1.9233   -2.7604    0.0000 O   0  0  0  0  0  0  0  0  0  0  0  0
    3.3523   -2.7604    0.0000 O   0  0  0  0  0  0  0  0  0  0  0  0
    1.9233   -1.1104    0.0000 C   0  0  0  0  0  0  0  0  0  0  0  0
    1.1387   -1.3654    0.0000 N   0  0  0  0  0  0  0  0  0  0  0  0
  1  2  1  0  0  0  0
  2  3  4  0  0  0  0
  3  4  4  0  0  0  0
  4  5  4  0  0  0  0
  5  6  4  0  0  0  0
  6  7  1  0  0  0  0
  7  8  4  0  0  0  0
  8  9  4  0  0  0  0
  9 10  4  0  0  0  0
 10 11  1  0  0  0  0
 11 12  4  0  0  0  0
 12 13  4  0  0  0  0
 13 14  4  0  0  0  0
 14 15  4  0  0  0  0
 15 16  1  0  0  0  0
 16 17  1  0  0  0  0
 17 18  1  0  0  0  0
 18 19  1  0  0  0  0
 19 20  1  0  0  0  0
 20 21  1  0  0  0  0
 21 22  1  0  0  0  0
 17 22  1  0  0  0  0
 15 23  4  0  0  0  0
 11 23  4  0  0  0  0
 10 24  4  0  0  0  0
 24 25  4  0  0  0  0
  7 25  4  0  0  0  0
  6 26  4  0  0  0  0
 26 27  4  0  0  0  0
 27 28  1  0  0  0  0
 28 29  2  0  0  0  0
 28 30  1  0  0  0  0
 27 31  4  0  0  0  0
  4 31  4  0  0  0  0
 31 32  4  0  0  0  0
  2 32  4  0  0  0  0
M  END
> <IC50(uM)>
1.0

> <Outcome>
1.0

> <BindingDB ID>
1100177

> <BindingDB MonomerID>
520636

> <BindingDB Ligand Name>
2-methyl-6-(3'-(morpholinomethyl)-[1,1'-biphenyl]-4-yl)-2H-benzo[d][1,2,3]triazole- 4-carboxylic acid;::US11147801, Compound 16

> <Curation/DataSource>
US Patent

> <Article DOI>
?

> <PMID>
?

> <Patent Number>
US11147801

> <Authors>
Nellore, K; Hosahalli, S

> <Link to Ligand in BindingDB>
http://www.bindingdb.org/bind/chemsearch/marvin/MolStructure.jsp?monomerid=520636

> <Link to Ligand-Target Pair in BindingDB>
http://www.bindingdb.org/jsp/dbsearch/PrimarySearch_ki.jsp?energyterm=kJ/mole&tag=r21&monomerid=520636&enzyme=Dihydroorotate+dehydrogenase&column=ki&startPg=0&Increment=50&submit=Search

> <PubChem CID>
?

> <PubChem SID>
?

$$$$

  Mrv2115 07222212352D          

 23 25  0  0  0  0            999 V2000
    0.0000   -1.6500    0.0000 C   0  0  0  0  0  0  0  0  0  0  0  0
    0.7145   -1.2375    0.0000 C   0  0  0  0  0  0  0  0  0  0  0  0
    0.7145   -0.4125    0.0000 C   0  0  0  0  0  0  0  0  0  0  0  0
    1.4289    0.0000    0.0000 C   0  0  0  0  0  0  0  0  0  0  0  0
    2.1434   -0.4125    0.0000 C   0  0  0  0  0  0  0  0  0  0  0  0
    2.8579    0.0000    0.0000 C   0  0  0  0  0  0  0  0  0  0  0  0
    2.8579    0.8250    0.0000 C   0  0  0  0  0  0  0  0  0  0  0  0
    3.5724    1.2375    0.0000 O   0  0  0  0  0  0  0  0  0  0  0  0
    2.1434    1.2375    0.0000 O   0  0  0  0  0  0  0  0  0  0  0  0
    3.5724   -0.4125    0.0000 C   0  0  0  0  0  0  0  0  0  0  0  0
    4.2868   -0.0000    0.0000 O   0  0  0  0  0  0  0  0  0  0  0  0
    3.5724   -1.2375    0.0000 C   0  0  0  0  0  0  0  0  0  0  0  0
    4.2868   -1.6500    0.0000 C   0  0  0  0  0  0  0  0  0  0  0  0
    5.0013   -1.2375    0.0000 C   0  0  0  0  0  0  0  0  0  0  0  0
    5.7158   -1.6500    0.0000 C   0  0  0  0  0  0  0  0  0  0  0  0
    5.7158   -2.4750    0.0000 C   0  0  0  0  0  0  0  0  0  0  0  0
    6.4302   -2.8875    0.0000 Br  0  0  0  0  0  0  0  0  0  0  0  0
    5.0013   -2.8875    0.0000 C   0  0  0  0  0  0  0  0  0  0  0  0
    4.2868   -2.4750    0.0000 C   0  0  0  0  0  0  0  0  0  0  0  0
    2.8579   -1.6500    0.0000 N   0  0  0  0  0  0  0  0  0  0  0  0
    2.1434   -1.2375    0.0000 C   0  0  0  0  0  0  0  0  0  0  0  0
    1.4289   -1.6500    0.0000 C   0  0  0  0  0  0  0  0  0  0  0  0
    1.4289   -2.4750    0.0000 C   0  0  0  0  0  0  0  0  0  0  0  0
  1  2  1  0  0  0  0
  2  3  4  0  0  0  0
  3  4  4  0  0  0  0
  4  5  4  0  0  0  0
  5  6  4  0  0  0  0
  6  7  1  0  0  0  0
  7  8  2  0  0  0  0
  7  9  1  0  0  0  0
  6 10  4  0  0  0  0
 10 11  1  0  0  0  0
 10 12  4  0  0  0  0
 12 13  1  0  0  0  0
 13 14  4  0  0  0  0
 14 15  4  0  0  0  0
 15 16  4  0  0  0  0
 16 17  1  0  0  0  0
 16 18  4  0  0  0  0
 18 19  4  0  0  0  0
 13 19  4  0  0  0  0
 12 20  4  0  0  0  0
 20 21  4  0  0  0  0
  5 21  4  0  0  0  0
 21 22  4  0  0  0  0
  2 22  4  0  0  0  0
 22 23  1  0  0  0  0
M  END
> <IC50(uM)>
56.0

> <Outcome>
0.0

> <BindingDB ID>
50841878

> <BindingDB MonomerID>
50201914

> <BindingDB Ligand Name>
2-(4-bromophenyl)-3-hydroxy-7,8-dimethylquinoline-4-carboxylicacid::CHEMBL374432

> <Curation/DataSource>
ChEMBL

> <Article DOI>
10.1021/jm0602256

> <PMID>
17201408

> <Patent Number>
?

> <Authors>
Kaila, N; Janz, K; DeBernardo, S; Bedard, PW; Camphausen, RT; Tam, S; Tsao, DH; Keith, JC; Nickerson-Nutter, C; Shilling, A; Young-Sciame, R; Wang, Q

> <Link to Ligand in BindingDB>
http://www.bindingdb.org/bind/chemsearch/marvin/MolStructure.jsp?monomerid=50201914

> <Link to Ligand-Target Pair in BindingDB>
http://www.bindingdb.org/jsp/dbsearch/PrimarySearch_ki.jsp?energyterm=kJ/mole&tag=r21&monomerid=50201914&enzyme=Dihydroorotate+dehydrogenase&column=ki&startPg=0&Increment=50&submit=Search

> <PubChem CID>
16099913

> <PubChem SID>
104081565

$$$$

  Mrv2115 07222212352D          

 33 36  0  0  0  0            999 V2000
   -5.0710    1.6562    0.0000 C   0  0  0  0  0  0  0  0  0  0  0  0
   -4.2640    1.4847    0.0000 C   0  0  0  0  0  0  0  0  0  0  0  0
   -3.6509    2.0367    0.0000 C   0  0  0  0  0  0  0  0  0  0  0  0
   -2.9364    1.6242    0.0000 N   0  0  0  0  0  0  0  0  0  0  0  0
   -3.1079    0.8172    0.0000 O   0  0  0  0  0  0  0  0  0  0  0  0
   -3.9284    0.7310    0.0000 C   0  0  0  0  0  0  0  0  0  0  0  0
   -4.3409    0.0165    0.0000 N   0  0  0  0  0  0  0  0  0  0  0  0
   -3.9284   -0.6979    0.0000 C   0  0  0  0  0  0  0  0  0  0  0  0
   -4.3409   -1.4124    0.0000 O   0  0  0  0  0  0  0  0  0  0  0  0
   -3.1034   -0.6979    0.0000 C   0  0  0  0  0  0  0  0  0  0  0  0
   -2.6909    0.0165    0.0000 C   0  0  0  0  0  0  0  0  0  0  0  0
   -1.8659    0.0165    0.0000 C   0  0  0  0  0  0  0  0  0  0  0  0
   -1.4534    0.7310    0.0000 F   0  0  0  0  0  0  0  0  0  0  0  0
   -1.4534   -0.6979    0.0000 C   0  0  0  0  0  0  0  0  0  0  0  0
   -0.6284   -0.6979    0.0000 N   0  0  0  0  0  0  0  0  0  0  0  0
   -0.1435   -1.3654    0.0000 N   0  0  0  0  0  0  0  0  0  0  0  0
    0.6411   -1.1104    0.0000 C   0  0  0  0  0  0  0  0  0  0  0  0
    0.6411   -0.2854    0.0000 N   0  0  0  0  0  0  0  0  0  0  0  0
   -0.1435   -0.0305    0.0000 C   0  0  0  0  0  0  0  0  0  0  0  0
   -0.3984    0.7541    0.0000 O   0  0  0  0  0  0  0  0  0  0  0  0
    1.3556    0.1271    0.0000 C   0  0  0  0  0  0  0  0  0  0  0  0
    2.0701   -0.2854    0.0000 C   0  0  0  0  0  0  0  0  0  0  0  0
    2.0701   -1.1104    0.0000 C   0  0  0  0  0  0  0  0  0  0  0  0
    1.3556   -1.5229    0.0000 C   0  0  0  0  0  0  0  0  0  0  0  0
   -1.8659   -1.4124    0.0000 C   0  0  0  0  0  0  0  0  0  0  0  0
   -2.6909   -1.4124    0.0000 C   0  0  0  0  0  0  0  0  0  0  0  0
   -3.1034   -2.1269    0.0000 O   0  0  0  0  0  0  0  0  0  0  0  0
   -2.6909   -2.8414    0.0000 C   0  0  0  0  0  0  0  0  0  0  0  0
   -1.8659   -2.8414    0.0000 C   0  0  0  0  0  0  0  0  0  0  0  0
   -3.1034   -3.5558    0.0000 C   0  0  0  0  0  0  0  0  0  0  0  0
   -3.8179   -3.1433    0.0000 F   0  0  0  0  0  0  0  0  0  0  0  0
   -2.3890   -3.9683    0.0000 F   0  0  0  0  0  0  0  0  0  0  0  0
   -3.5159   -4.2703    0.0000 F   0  0  0  0  0  0  0  0  0  0  0  0
  1  2  1  0  0  0  0
  2  3  4  0  0  0  0
  3  4  4  0  0  0  0
  4  5  4  0  0  0  0
  5  6  4  0  0  0  0
  2  6  4  0  0  0  0
  6  7  1  0  0  0  0
  7  8  1  0  0  0  0
  8  9  2  0  0  0  0
  8 10  1  0  0  0  0
 10 11  4  0  0  0  0
 11 12  4  0  0  0  0
 12 13  1  0  0  0  0
 12 14  4  0  0  0  0
 14 15  1  0  0  0  0
 15 16  4  0  0  0  0
 16 17  4  0  0  0  0
 17 18  4  0  0  0  0
 18 19  4  0  0  0  0
 15 19  4  0  0  0  0
 19 20  2  0  0  0  0
 18 21  1  0  0  0  0
 21 22  1  0  0  0  0
 22 23  1  0  0  0  0
 23 24  1  0  0  0  0
 17 24  1  0  0  0  0
 14 25  4  0  0  0  0
 25 26  4  0  0  0  0
 10 26  4  0  0  0  0
 26 27  1  0  0  0  0
 27 28  1  0  0  0  0
 28 29  1  0  0  0  0
 28 30  1  0  0  0  0
 30 31  1  0  0  0  0
 30 32  1  0  0  0  0
 30 33  1  0  0  0  0
M  END
> <IC50(uM)>
0.21

> <Outcome>
1.0

> <BindingDB ID>
1020422

> <BindingDB MonomerID>
490373

> <BindingDB Ligand Name>
5-fluoro-N-(4-methyl-1,2-oxazol-5-yl)-4-(3-oxo-5,6,7,8-tetrahydro[1,2,4]triazolo[4,3-a]pyridin-2(3H)-yl)-2-{[(2S)-1,1,1-trifluoropropan-2-yl]oxy}benzamide::US10968216, Example 41

> <Curation/DataSource>
US Patent

> <Article DOI>
?

> <PMID>
?

> <Patent Number>
US10968216

> <Authors>
Gradl, SN; Nguyen, D; Eis, K; Gunther, J; Stellfeld, T; Janzer, A; Christian, S; Mueller, T; Sheikh, SE; Zhou, HJ; Zhao, C; Sykes, DB; Ferrara, SJ; Liu, K; Herbert, SA; Merz, C; Niehues, M; Nising, CF; Schafer, M; Zimmermann, K; Knablein, J; Thede, K; Faupel, T

> <Link to Ligand in BindingDB>
http://www.bindingdb.org/bind/chemsearch/marvin/MolStructure.jsp?monomerid=490373

> <Link to Ligand-Target Pair in BindingDB>
http://www.bindingdb.org/jsp/dbsearch/PrimarySearch_ki.jsp?energyterm=kJ/mole&tag=r21&monomerid=490373&enzyme=Dihydroorotate+dehydrogenase&column=ki&startPg=0&Increment=50&submit=Search

> <PubChem CID>
134473910

> <PubChem SID>
447117100

$$$$

  Mrv2115 07222212352D          

 20 22  0  0  0  0            999 V2000
    0.2896   -6.2803    0.0000 C   0  0  0  0  0  0  0  0  0  0  0  0
    0.8416   -5.6672    0.0000 C   0  0  0  0  0  0  0  0  0  0  0  0
    1.6486   -5.8387    0.0000 C   0  0  0  0  0  0  0  0  0  0  0  0
    0.5867   -4.8826    0.0000 N   0  0  0  0  0  0  0  0  0  0  0  0
    1.1387   -4.2695    0.0000 C   0  0  0  0  0  0  0  0  0  0  0  0
    1.9457   -4.4410    0.0000 O   0  0  0  0  0  0  0  0  0  0  0  0
    0.8838   -3.4849    0.0000 C   0  0  0  0  0  0  0  0  0  0  0  0
    0.0992   -3.2299    0.0000 C   0  0  0  0  0  0  0  0  0  0  0  0
    0.0992   -2.4049    0.0000 C   0  0  0  0  0  0  0  0  0  0  0  0
    0.8838   -2.1500    0.0000 C   0  0  0  0  0  0  0  0  0  0  0  0
    1.1387   -1.3654    0.0000 N   0  0  0  0  0  0  0  0  0  0  0  0
    0.6538   -0.6979    0.0000 C   0  0  0  0  0  0  0  0  0  0  0  0
    1.1387   -0.0305    0.0000 N   0  0  0  0  0  0  0  0  0  0  0  0
    1.9233   -0.2854    0.0000 C   0  0  0  0  0  0  0  0  0  0  0  0
    2.6378    0.1271    0.0000 C   0  0  0  0  0  0  0  0  0  0  0  0
    3.3523   -0.2854    0.0000 C   0  0  0  0  0  0  0  0  0  0  0  0
    3.3523   -1.1104    0.0000 C   0  0  0  0  0  0  0  0  0  0  0  0
    2.6378   -1.5229    0.0000 C   0  0  0  0  0  0  0  0  0  0  0  0
    1.9233   -1.1104    0.0000 C   0  0  0  0  0  0  0  0  0  0  0  0
    1.3687   -2.8174    0.0000 S   0  0  0  0  0  0  0  0  0  0  0  0
  1  2  1  0  0  0  0
  2  3  1  0  0  0  0
  2  4  1  0  0  0  0
  4  5  1  0  0  0  0
  5  6  2  0  0  0  0
  5  7  1  0  0  0  0
  7  8  4  0  0  0  0
  8  9  4  0  0  0  0
  9 10  4  0  0  0  0
 10 11  1  0  0  0  0
 11 12  4  0  0  0  0
 12 13  4  0  0  0  0
 13 14  4  0  0  0  0
 14 15  4  0  0  0  0
 15 16  4  0  0  0  0
 16 17  4  0  0  0  0
 17 18  4  0  0  0  0
 18 19  4  0  0  0  0
 14 19  4  0  0  0  0
 11 19  4  0  0  0  0
 10 20  4  0  0  0  0
  7 20  4  0  0  0  0
M  END
> <IC50(uM)>
30.0

> <Outcome>
0.0

> <BindingDB ID>
50924659

> <BindingDB MonomerID>
50379141

> <BindingDB Ligand Name>
CHEMBL2012823::US8703811, 36

> <Curation/DataSource>
ChEMBL

> <Article DOI>
10.1021/ml200143c

> <PMID>
24900364

> <Patent Number>
?

> <Authors>
Skerlj, RT; Bastos, CM; Booker, ML; Kramer, ML; Barker, RH; Celatka, CA; Munoz, B; Sidhu, AB; Cortese, JF; Wittlin, S; Papastogiannidis, P; Angulo-Barturen, I; Jimenez-Diaz, MB; Sybertz, E

> <Link to Ligand in BindingDB>
http://www.bindingdb.org/bind/chemsearch/marvin/MolStructure.jsp?monomerid=50379141

> <Link to Ligand-Target Pair in BindingDB>
http://www.bindingdb.org/jsp/dbsearch/PrimarySearch_ki.jsp?energyterm=kJ/mole&tag=r21&monomerid=50379141&enzyme=Dihydroorotate+dehydrogenase&column=ki&startPg=0&Increment=50&submit=Search

> <PubChem CID>
58284891

> <PubChem SID>
160858224

$$$$

  Mrv2115 07222212352D          

 31 35  0  0  0  0            999 V2000
    6.7861   -5.3057    0.0000 C   0  0  0  0  0  0  0  0  0  0  0  0
    6.5311   -4.5211    0.0000 O   0  0  0  0  0  0  0  0  0  0  0  0
    5.7242   -4.3496    0.0000 C   0  0  0  0  0  0  0  0  0  0  0  0
    5.1721   -4.9627    0.0000 C   0  0  0  0  0  0  0  0  0  0  0  0
    4.3652   -4.7911    0.0000 C   0  0  0  0  0  0  0  0  0  0  0  0
    4.1102   -4.0065    0.0000 C   0  0  0  0  0  0  0  0  0  0  0  0
    4.6623   -3.3934    0.0000 C   0  0  0  0  0  0  0  0  0  0  0  0
    4.4073   -2.6088    0.0000 C   0  0  0  0  0  0  0  0  0  0  0  0
    3.6004   -2.4373    0.0000 C   0  0  0  0  0  0  0  0  0  0  0  0
    3.0483   -3.0504    0.0000 F   0  0  0  0  0  0  0  0  0  0  0  0
    3.3454   -1.6527    0.0000 C   0  0  0  0  0  0  0  0  0  0  0  0
    3.8974   -1.0396    0.0000 C   0  0  0  0  0  0  0  0  0  0  0  0
    3.6425   -0.2549    0.0000 N   0  0  0  0  0  0  0  0  0  0  0  0
    4.1274    0.4125    0.0000 N   0  0  0  0  0  0  0  0  0  0  0  0
    3.6425    1.0799    0.0000 N   0  0  0  0  0  0  0  0  0  0  0  0
    2.8579    0.8250    0.0000 C   0  0  0  0  0  0  0  0  0  0  0  0
    2.8579    0.0000    0.0000 C   0  0  0  0  0  0  0  0  0  0  0  0
    2.1434   -0.4125    0.0000 C   0  0  0  0  0  0  0  0  0  0  0  0
    2.1434   -1.2375    0.0000 O   0  0  0  0  0  0  0  0  0  0  0  0
    1.4289   -0.0000    0.0000 C   0  0  0  0  0  0  0  0  0  0  0  0
    0.7145   -0.4125    0.0000 C   0  0  0  0  0  0  0  0  0  0  0  0
   -0.0000    0.0000    0.0000 C   0  0  0  0  0  0  0  0  0  0  0  0
    0.0000    0.8250    0.0000 C   0  0  0  0  0  0  0  0  0  0  0  0
    0.7145    1.2375    0.0000 C   0  0  0  0  0  0  0  0  0  0  0  0
    1.4289    0.8250    0.0000 C   0  0  0  0  0  0  0  0  0  0  0  0
    2.1434    1.2375    0.0000 C   0  0  0  0  0  0  0  0  0  0  0  0
    2.1434    2.0625    0.0000 O   0  0  0  0  0  0  0  0  0  0  0  0
    4.7044   -1.2111    0.0000 C   0  0  0  0  0  0  0  0  0  0  0  0
    4.9594   -1.9957    0.0000 C   0  0  0  0  0  0  0  0  0  0  0  0
    5.7663   -2.1672    0.0000 F   0  0  0  0  0  0  0  0  0  0  0  0
    5.4692   -3.5650    0.0000 C   0  0  0  0  0  0  0  0  0  0  0  0
  1  2  1  0  0  0  0
  2  3  1  0  0  0  0
  3  4  4  0  0  0  0
  4  5  4  0  0  0  0
  5  6  4  0  0  0  0
  6  7  4  0  0  0  0
  7  8  1  0  0  0  0
  8  9  4  0  0  0  0
  9 10  1  0  0  0  0
  9 11  4  0  0  0  0
 11 12  4  0  0  0  0
 12 13  1  0  0  0  0
 13 14  4  0  0  0  0
 14 15  4  0  0  0  0
 15 16  4  0  0  0  0
 16 17  4  0  0  0  0
 13 17  4  0  0  0  0
 17 18  1  0  0  0  0
 18 19  2  0  0  0  0
 18 20  1  0  0  0  0
 20 21  4  0  0  0  0
 21 22  4  0  0  0  0
 22 23  4  0  0  0  0
 23 24  4  0  0  0  0
 24 25  4  0  0  0  0
 20 25  4  0  0  0  0
 25 26  1  0  0  0  0
 16 26  1  0  0  0  0
 26 27  2  0  0  0  0
 12 28  4  0  0  0  0
 28 29  4  0  0  0  0
  8 29  4  0  0  0  0
 29 30  1  0  0  0  0
  7 31  4  0  0  0  0
  3 31  4  0  0  0  0
M  END
> <IC50(uM)>
0.009

> <Outcome>
1.0

> <BindingDB ID>
51338198

> <BindingDB MonomerID>
50541672

> <BindingDB Ligand Name>
CHEMBL4648164

> <Curation/DataSource>
ChEMBL

> <Article DOI>
10.1021/acs.jmedchem.0c00512

> <PMID>
32496056

> <Patent Number>
?

> <Authors>
Zuo, Z; Liu, X; Qian, X; Zeng, T; Sang, N; Liu, H; Zhou, Y; Tao, L; Zhou, X; Su, N; Yu, Y; Chen, Q; Luo, Y; Zhao, Y

> <Link to Ligand in BindingDB>
http://www.bindingdb.org/bind/chemsearch/marvin/MolStructure.jsp?monomerid=50541672

> <Link to Ligand-Target Pair in BindingDB>
http://www.bindingdb.org/jsp/dbsearch/PrimarySearch_ki.jsp?energyterm=kJ/mole&tag=r21&monomerid=50541672&enzyme=Dihydroorotate+dehydrogenase&column=ki&startPg=0&Increment=50&submit=Search

> <PubChem CID>
154700495

> <PubChem SID>
442143235

$$$$

  Mrv2115 07222212352D          

 41 46  0  0  0  0            999 V2000
   -1.8659    1.4455    0.0000 C   0  0  0  0  0  0  0  0  0  0  0  0
   -2.6909    1.4455    0.0000 C   0  0  0  0  0  0  0  0  0  0  0  0
   -3.1034    0.7310    0.0000 O   0  0  0  0  0  0  0  0  0  0  0  0
   -2.6909    0.0165    0.0000 C   0  0  0  0  0  0  0  0  0  0  0  0
   -1.8659    0.0165    0.0000 C   0  0  0  0  0  0  0  0  0  0  0  0
   -1.4534   -0.6979    0.0000 C   0  0  0  0  0  0  0  0  0  0  0  0
   -0.6284   -0.6979    0.0000 N   0  0  0  0  0  0  0  0  0  0  0  0
   -0.1435   -1.3654    0.0000 N   0  0  0  0  0  0  0  0  0  0  0  0
    0.6411   -1.1104    0.0000 C   0  0  0  0  0  0  0  0  0  0  0  0
    0.6411   -0.2854    0.0000 N   0  0  0  0  0  0  0  0  0  0  0  0
   -0.1435   -0.0305    0.0000 C   0  0  0  0  0  0  0  0  0  0  0  0
   -0.3984    0.7541    0.0000 O   0  0  0  0  0  0  0  0  0  0  0  0
    1.3556    0.1271    0.0000 C   0  0  0  0  0  0  0  0  0  0  0  0
    2.0701   -0.2854    0.0000 C   0  0  0  0  0  0  0  0  0  0  0  0
    2.0701   -1.1104    0.0000 C   0  0  0  0  0  0  0  0  0  0  0  0
    1.3556   -1.5229    0.0000 C   0  0  0  0  0  0  0  0  0  0  0  0
   -1.8659   -1.4124    0.0000 C   0  0  0  0  0  0  0  0  0  0  0  0
   -1.4534   -2.1269    0.0000 F   0  0  0  0  0  0  0  0  0  0  0  0
   -2.6909   -1.4124    0.0000 C   0  0  0  0  0  0  0  0  0  0  0  0
   -3.1034   -0.6979    0.0000 C   0  0  0  0  0  0  0  0  0  0  0  0
   -3.9284   -0.6979    0.0000 C   0  0  0  0  0  0  0  0  0  0  0  0
   -4.3409    0.0165    0.0000 O   0  0  0  0  0  0  0  0  0  0  0  0
   -4.3409   -1.4124    0.0000 N   0  0  0  0  0  0  0  0  0  0  0  0
   -3.9284   -2.1269    0.0000 C   0  0  0  0  0  0  0  0  0  0  0  0
   -3.1034   -2.1269    0.0000 C   0  0  0  0  0  0  0  0  0  0  0  0
   -2.6909   -2.8414    0.0000 C   0  0  0  0  0  0  0  0  0  0  0  0
   -3.1034   -3.5558    0.0000 C   0  0  0  0  0  0  0  0  0  0  0  0
   -2.6909   -4.2703    0.0000 N   0  0  0  0  0  0  0  0  0  0  0  0
   -1.8659   -4.2703    0.0000 C   0  0  0  0  0  0  0  0  0  0  0  0
   -1.4534   -4.9848    0.0000 C   0  0  0  0  0  0  0  0  0  0  0  0
   -1.8659   -5.6992    0.0000 O   0  0  0  0  0  0  0  0  0  0  0  0
   -2.6909   -5.6992    0.0000 C   0  0  0  0  0  0  0  0  0  0  0  0
   -3.1034   -4.9848    0.0000 C   0  0  0  0  0  0  0  0  0  0  0  0
   -3.9284   -3.5558    0.0000 N   0  0  0  0  0  0  0  0  0  0  0  0
   -4.3409   -2.8414    0.0000 N   0  0  0  0  0  0  0  0  0  0  0  0
   -3.1034    2.1599    0.0000 C   0  0  0  0  0  0  0  0  0  0  0  0
   -3.9284    2.1599    0.0000 C   0  0  0  0  0  0  0  0  0  0  0  0
   -4.3409    2.8744    0.0000 C   0  0  0  0  0  0  0  0  0  0  0  0
   -3.9284    3.5889    0.0000 C   0  0  0  0  0  0  0  0  0  0  0  0
   -3.1034    3.5889    0.0000 C   0  0  0  0  0  0  0  0  0  0  0  0
   -2.6909    2.8744    0.0000 C   0  0  0  0  0  0  0  0  0  0  0  0
  1  2  1  0  0  0  0
  2  3  1  0  0  0  0
  3  4  1  0  0  0  0
  4  5  4  0  0  0  0
  5  6  4  0  0  0  0
  6  7  1  0  0  0  0
  7  8  4  0  0  0  0
  8  9  4  0  0  0  0
  9 10  4  0  0  0  0
 10 11  4  0  0  0  0
  7 11  4  0  0  0  0
 11 12  2  0  0  0  0
 10 13  1  0  0  0  0
 13 14  1  0  0  0  0
 14 15  1  0  0  0  0
 15 16  1  0  0  0  0
  9 16  1  0  0  0  0
  6 17  4  0  0  0  0
 17 18  1  0  0  0  0
 17 19  4  0  0  0  0
 19 20  4  0  0  0  0
  4 20  4  0  0  0  0
 20 21  1  0  0  0  0
 21 22  2  0  0  0  0
 21 23  1  0  0  0  0
 23 24  1  0  0  0  0
 24 25  4  0  0  0  0
 25 26  4  0  0  0  0
 26 27  4  0  0  0  0
 27 28  1  0  0  0  0
 28 29  1  0  0  0  0
 29 30  1  0  0  0  0
 30 31  1  0  0  0  0
 31 32  1  0  0  0  0
 32 33  1  0  0  0  0
 28 33  1  0  0  0  0
 27 34  4  0  0  0  0
 34 35  4  0  0  0  0
 24 35  4  0  0  0  0
  2 36  1  0  0  0  0
 36 37  1  0  0  0  0
 37 38  1  0  0  0  0
 38 39  1  0  0  0  0
 39 40  1  0  0  0  0
 40 41  1  0  0  0  0
 36 41  1  0  0  0  0
M  END
> <IC50(uM)>
0.22

> <Outcome>
1.0

> <BindingDB ID>
1020506

> <BindingDB MonomerID>
490454

> <BindingDB Ligand Name>
2-[(1S)-1-cyclohexylethoxy]-5-fluoro-N-[6-(morpholin-4-yl)pyridazin-3-yl]-4-(3-oxo-5,6,7,8-tetrahydro[1,2,4]triazolo[4,3-a]pyridin-2(3H)-yl)benzamide::US10968216, Example 122

> <Curation/DataSource>
US Patent

> <Article DOI>
?

> <PMID>
?

> <Patent Number>
US10968216

> <Authors>
Gradl, SN; Nguyen, D; Eis, K; Gunther, J; Stellfeld, T; Janzer, A; Christian, S; Mueller, T; Sheikh, SE; Zhou, HJ; Zhao, C; Sykes, DB; Ferrara, SJ; Liu, K; Herbert, SA; Merz, C; Niehues, M; Nising, CF; Schafer, M; Zimmermann, K; Knablein, J; Thede, K; Faupel, T

> <Link to Ligand in BindingDB>
http://www.bindingdb.org/bind/chemsearch/marvin/MolStructure.jsp?monomerid=490454

> <Link to Ligand-Target Pair in BindingDB>
http://www.bindingdb.org/jsp/dbsearch/PrimarySearch_ki.jsp?energyterm=kJ/mole&tag=r21&monomerid=490454&enzyme=Dihydroorotate+dehydrogenase&column=ki&startPg=0&Increment=50&submit=Search

> <PubChem CID>
134474493

> <PubChem SID>
447117181

$$$$

  Mrv2115 07222212352D          

 24 27  0  0  0  0            999 V2000
    5.4692   -3.5650    0.0000 C   0  0  0  0  0  0  0  0  0  0  0  0
    4.6623   -3.3934    0.0000 C   0  0  0  0  0  0  0  0  0  0  0  0
    4.1102   -4.0065    0.0000 C   0  0  0  0  0  0  0  0  0  0  0  0
    4.4073   -2.6088    0.0000 C   0  0  0  0  0  0  0  0  0  0  0  0
    3.6004   -2.4373    0.0000 C   0  0  0  0  0  0  0  0  0  0  0  0
    3.3454   -1.6527    0.0000 C   0  0  0  0  0  0  0  0  0  0  0  0
    3.8974   -1.0396    0.0000 C   0  0  0  0  0  0  0  0  0  0  0  0
    3.6425   -0.2549    0.0000 N   0  0  0  0  0  0  0  0  0  0  0  0
    4.1274    0.4125    0.0000 N   0  0  0  0  0  0  0  0  0  0  0  0
    3.6425    1.0799    0.0000 N   0  0  0  0  0  0  0  0  0  0  0  0
    2.8579    0.8250    0.0000 C   0  0  0  0  0  0  0  0  0  0  0  0
    2.8579    0.0000    0.0000 C   0  0  0  0  0  0  0  0  0  0  0  0
    2.1434   -0.4125    0.0000 C   0  0  0  0  0  0  0  0  0  0  0  0
    2.1434   -1.2375    0.0000 O   0  0  0  0  0  0  0  0  0  0  0  0
    1.4289   -0.0000    0.0000 C   0  0  0  0  0  0  0  0  0  0  0  0
    0.7145   -0.4125    0.0000 C   0  0  0  0  0  0  0  0  0  0  0  0
   -0.0000    0.0000    0.0000 C   0  0  0  0  0  0  0  0  0  0  0  0
    0.0000    0.8250    0.0000 C   0  0  0  0  0  0  0  0  0  0  0  0
    0.7145    1.2375    0.0000 C   0  0  0  0  0  0  0  0  0  0  0  0
    1.4289    0.8250    0.0000 C   0  0  0  0  0  0  0  0  0  0  0  0
    2.1434    1.2375    0.0000 C   0  0  0  0  0  0  0  0  0  0  0  0
    2.1434    2.0625    0.0000 O   0  0  0  0  0  0  0  0  0  0  0  0
    4.7044   -1.2111    0.0000 C   0  0  0  0  0  0  0  0  0  0  0  0
    4.9594   -1.9957    0.0000 C   0  0  0  0  0  0  0  0  0  0  0  0
  1  2  1  0  0  0  0
  2  3  1  0  0  0  0
  2  4  1  0  0  0  0
  4  5  4  0  0  0  0
  5  6  4  0  0  0  0
  6  7  4  0  0  0  0
  7  8  1  0  0  0  0
  8  9  4  0  0  0  0
  9 10  4  0  0  0  0
 10 11  4  0  0  0  0
 11 12  4  0  0  0  0
  8 12  4  0  0  0  0
 12 13  1  0  0  0  0
 13 14  2  0  0  0  0
 13 15  1  0  0  0  0
 15 16  4  0  0  0  0
 16 17  4  0  0  0  0
 17 18  4  0  0  0  0
 18 19  4  0  0  0  0
 19 20  4  0  0  0  0
 15 20  4  0  0  0  0
 20 21  1  0  0  0  0
 11 21  1  0  0  0  0
 21 22  2  0  0  0  0
  7 23  4  0  0  0  0
 23 24  4  0  0  0  0
  4 24  4  0  0  0  0
M  END
> <IC50(uM)>
0.56

> <Outcome>
1.0

> <BindingDB ID>
51338167

> <BindingDB MonomerID>
50541641

> <BindingDB Ligand Name>
CHEMBL4639376

> <Curation/DataSource>
ChEMBL

> <Article DOI>
10.1021/acs.jmedchem.0c00512

> <PMID>
32496056

> <Patent Number>
?

> <Authors>
Zuo, Z; Liu, X; Qian, X; Zeng, T; Sang, N; Liu, H; Zhou, Y; Tao, L; Zhou, X; Su, N; Yu, Y; Chen, Q; Luo, Y; Zhao, Y

> <Link to Ligand in BindingDB>
http://www.bindingdb.org/bind/chemsearch/marvin/MolStructure.jsp?monomerid=50541641

> <Link to Ligand-Target Pair in BindingDB>
http://www.bindingdb.org/jsp/dbsearch/PrimarySearch_ki.jsp?energyterm=kJ/mole&tag=r21&monomerid=50541641&enzyme=Dihydroorotate+dehydrogenase&column=ki&startPg=0&Increment=50&submit=Search

> <PubChem CID>
156013216

> <PubChem SID>
442143204

$$$$

  Mrv2115 07222212352D          

 26 29  0  0  0  0            999 V2000
    2.5645    4.9500    0.0000 C   0  0  0  0  0  0  0  0  0  0  0  0
    3.2789    4.5375    0.0000 C   0  0  0  0  0  0  0  0  0  0  0  0
    3.9934    4.9500    0.0000 C   0  0  0  0  0  0  0  0  0  0  0  0
    4.7079    4.5375    0.0000 C   0  0  0  0  0  0  0  0  0  0  0  0
    4.7079    3.7125    0.0000 N   0  0  0  0  0  0  0  0  0  0  0  0
    3.9934    3.3000    0.0000 C   0  0  0  0  0  0  0  0  0  0  0  0
    3.9934    2.4750    0.0000 C   0  0  0  0  0  0  0  0  0  0  0  0
    4.7079    2.0625    0.0000 O   0  0  0  0  0  0  0  0  0  0  0  0
    3.2789    2.0625    0.0000 N   0  0  0  0  0  0  0  0  0  0  0  0
    3.2789    1.2375    0.0000 C   0  0  0  0  0  0  0  0  0  0  0  0
    3.9934    0.8250    0.0000 C   0  0  0  0  0  0  0  0  0  0  0  0
    3.9934    0.0000    0.0000 C   0  0  0  0  0  0  0  0  0  0  0  0
    3.2789   -0.4125    0.0000 C   0  0  0  0  0  0  0  0  0  0  0  0
    2.5645    0.0000    0.0000 C   0  0  0  0  0  0  0  0  0  0  0  0
    2.5645    0.8250    0.0000 C   0  0  0  0  0  0  0  0  0  0  0  0
    1.7798    1.0799    0.0000 C   0  0  0  0  0  0  0  0  0  0  0  0
    1.2949    0.4125    0.0000 N   0  0  0  0  0  0  0  0  0  0  0  0
    1.7798   -0.2549    0.0000 N   0  0  0  0  0  0  0  0  0  0  0  0
    1.5249   -1.0396    0.0000 C   0  0  0  0  0  0  0  0  0  0  0  0
    2.0769   -1.6527    0.0000 C   0  0  0  0  0  0  0  0  0  0  0  0
    1.8220   -2.4373    0.0000 C   0  0  0  0  0  0  0  0  0  0  0  0
    1.0150   -2.6088    0.0000 C   0  0  0  0  0  0  0  0  0  0  0  0
    0.4630   -1.9957    0.0000 C   0  0  0  0  0  0  0  0  0  0  0  0
    0.7179   -1.2111    0.0000 C   0  0  0  0  0  0  0  0  0  0  0  0
    0.1659   -0.5980    0.0000 C   0  0  0  0  0  0  0  0  0  0  0  0
    3.2789    3.7125    0.0000 C   0  0  0  0  0  0  0  0  0  0  0  0
  1  2  1  0  0  0  0
  2  3  4  0  0  0  0
  3  4  4  0  0  0  0
  4  5  4  0  0  0  0
  5  6  4  0  0  0  0
  6  7  1  0  0  0  0
  7  8  2  0  0  0  0
  7  9  1  0  0  0  0
  9 10  1  0  0  0  0
 10 11  1  0  0  0  0
 11 12  1  0  0  0  0
 12 13  1  0  0  0  0
 13 14  1  0  0  0  0
 14 15  4  0  0  0  0
 10 15  1  0  0  0  0
 15 16  4  0  0  0  0
 16 17  4  0  0  0  0
 17 18  4  0  0  0  0
 14 18  4  0  0  0  0
 18 19  1  0  0  0  0
 19 20  4  0  0  0  0
 20 21  4  0  0  0  0
 21 22  4  0  0  0  0
 22 23  4  0  0  0  0
 23 24  4  0  0  0  0
 19 24  4  0  0  0  0
 24 25  1  0  0  0  0
  6 26  4  0  0  0  0
  2 26  4  0  0  0  0
M  END
> <IC50(uM)>
0.0155

> <Outcome>
1.0

> <BindingDB ID>
51334952; 993093

> <BindingDB MonomerID>
477595

> <BindingDB Ligand Name>
4-methyl-N-[(4R)-1-(2-methylphenyl)-4,5,6,7-tetrahydro-1H-indazol-4-yl]pyridine-2-carboxamide::US10889564, Example 25

> <Curation/DataSource>
ChEMBL; US Patent

> <Article DOI>
10.1021/acs.jmedchem.9b01658; ?

> <PMID>
32212728; ?

> <Patent Number>
?; US10889564

> <Authors>
Popova, G; Ladds, MJGW; Johansson, L; Saleh, A; Larsson, J; Sandberg, L; Sahlberg, SH; Qian, W; Gullberg, H; Garg, N; Gustavsson, AL; Haraldsson, M; Lane, D; Yngve, U; Lain, S; Lain, S; Drummond, C; Leeuwen, IV; Haraldsson, M; Johansson, L; Sandberg, L; Yngve, U

> <Link to Ligand in BindingDB>
http://www.bindingdb.org/bind/chemsearch/marvin/MolStructure.jsp?monomerid=477595

> <Link to Ligand-Target Pair in BindingDB>
http://www.bindingdb.org/jsp/dbsearch/PrimarySearch_ki.jsp?energyterm=kJ/mole&tag=r21&monomerid=477595&enzyme=Dihydroorotate+dehydrogenase&column=ki&startPg=0&Increment=50&submit=Search

> <PubChem CID>
129104686

> <PubChem SID>
442137212

$$$$

  Mrv2115 07222212352D          

 28 30  0  0  0  0            999 V2000
    0.7145   -3.7125    0.0000 C   0  0  0  0  0  0  0  0  0  0  0  0
    0.7145   -2.8875    0.0000 N   0  0  0  0  0  0  0  0  0  0  0  0
    0.0000   -2.4750    0.0000 C   0  0  0  0  0  0  0  0  0  0  0  0
    1.4289   -2.4750    0.0000 C   0  0  0  0  0  0  0  0  0  0  0  0
    2.1434   -2.8875    0.0000 O   0  0  0  0  0  0  0  0  0  0  0  0
    1.4289   -1.6500    0.0000 C   0  0  0  0  0  0  0  0  0  0  0  0
    0.7145   -1.2375    0.0000 C   0  0  0  0  0  0  0  0  0  0  0  0
    0.7145   -0.4125    0.0000 C   0  0  0  0  0  0  0  0  0  0  0  0
    1.4289    0.0000    0.0000 C   0  0  0  0  0  0  0  0  0  0  0  0
    2.1434   -0.4125    0.0000 C   0  0  0  0  0  0  0  0  0  0  0  0
    2.8579    0.0000    0.0000 C   0  0  0  0  0  0  0  0  0  0  0  0
    3.5724   -0.4125    0.0000 C   0  0  0  0  0  0  0  0  0  0  0  0
    4.2868   -0.0000    0.0000 C   0  0  0  0  0  0  0  0  0  0  0  0
    4.2868    0.8250    0.0000 C   0  0  0  0  0  0  0  0  0  0  0  0
    5.0013    1.2375    0.0000 C   0  0  0  0  0  0  0  0  0  0  0  0
    5.0013    2.0625    0.0000 C   0  0  0  0  0  0  0  0  0  0  0  0
    4.2868    2.4750    0.0000 C   0  0  0  0  0  0  0  0  0  0  0  0
    4.2868    3.3000    0.0000 O   0  0  0  0  0  0  0  0  0  0  0  0
    3.5724    2.0625    0.0000 O   0  0  0  0  0  0  0  0  0  0  0  0
    5.7158    2.4750    0.0000 N   0  0  0  0  0  0  0  0  0  0  0  0
    6.4302    2.0625    0.0000 C   0  0  0  0  0  0  0  0  0  0  0  0
    7.1447    2.4750    0.0000 O   0  0  0  0  0  0  0  0  0  0  0  0
    6.4302    1.2375    0.0000 N   0  0  0  0  0  0  0  0  0  0  0  0
    5.7158    0.8250    0.0000 C   0  0  0  0  0  0  0  0  0  0  0  0
    5.7158   -0.0000    0.0000 O   0  0  0  0  0  0  0  0  0  0  0  0
    3.5724   -1.2375    0.0000 C   0  0  0  0  0  0  0  0  0  0  0  0
    2.8579   -1.6500    0.0000 C   0  0  0  0  0  0  0  0  0  0  0  0
    2.1434   -1.2375    0.0000 C   0  0  0  0  0  0  0  0  0  0  0  0
  1  2  1  0  0  0  0
  2  3  1  0  0  0  0
  2  4  1  0  0  0  0
  4  5  2  0  0  0  0
  4  6  1  0  0  0  0
  6  7  4  0  0  0  0
  7  8  4  0  0  0  0
  8  9  4  0  0  0  0
  9 10  4  0  0  0  0
 10 11  4  0  0  0  0
 11 12  4  0  0  0  0
 12 13  1  0  0  0  0
 13 14  1  0  0  0  0
 14 15  1  0  0  0  0
 15 16  4  0  0  0  0
 16 17  1  0  0  0  0
 17 18  2  0  0  0  0
 17 19  1  0  0  0  0
 16 20  4  0  0  0  0
 20 21  4  0  0  0  0
 21 22  2  0  0  0  0
 21 23  4  0  0  0  0
 23 24  4  0  0  0  0
 15 24  4  0  0  0  0
 24 25  2  0  0  0  0
 12 26  4  0  0  0  0
 26 27  4  0  0  0  0
 27 28  4  0  0  0  0
  6 28  4  0  0  0  0
 10 28  4  0  0  0  0
M  STY  2   1 DAT   2 DAT
M  SAL   1  1  20
M  SDT   1 MRV_IMPLICIT_H                                        
M  SDD   1     0.6482   -0.4125    DR    ALL  0       0  
M  SED   1 IMPL_H1
M  SAL   2  1  23
M  SDT   2 MRV_IMPLICIT_H                                        
M  SDD   2     0.5304   -0.4125    DR    ALL  0       0  
M  SED   2 IMPL_H1
M  END
> <IC50(uM)>
0.04

> <Outcome>
1.0

> <BindingDB ID>
50555396

> <BindingDB MonomerID>
50212058

> <BindingDB Ligand Name>
CHEMBL3928909

> <Curation/DataSource>
ChEMBL

> <Article DOI>
10.1016/j.bmc.2017.01.009

> <PMID>
28118956

> <Patent Number>
?

> <Authors>
Inaoka, DK; Iida, M; Hashimoto, S; Tabuchi, T; Kuranaga, T; Balogun, EO; Honma, T; Tanaka, A; Harada, S; Nara, T; Kita, K; Inoue, M

> <Link to Ligand in BindingDB>
http://www.bindingdb.org/bind/chemsearch/marvin/MolStructure.jsp?monomerid=50212058

> <Link to Ligand-Target Pair in BindingDB>
http://www.bindingdb.org/jsp/dbsearch/PrimarySearch_ki.jsp?energyterm=kJ/mole&tag=r21&monomerid=50212058&enzyme=Dihydroorotate+dehydrogenase&column=ki&startPg=0&Increment=50&submit=Search

> <PubChem CID>
134141331

> <PubChem SID>
375983088

$$$$

  Mrv2115 07222212352D          

 34 38  0  0  0  0            999 V2000
   -0.1712   -0.6979    0.0000 C   0  0  0  0  0  0  0  0  0  0  0  0
    0.6538   -0.6979    0.0000 C   0  0  0  0  0  0  0  0  0  0  0  0
    1.1387   -0.0305    0.0000 N   0  0  0  0  0  0  0  0  0  0  0  0
    1.9233   -0.2854    0.0000 C   0  0  0  0  0  0  0  0  0  0  0  0
    2.6378    0.1271    0.0000 C   0  0  0  0  0  0  0  0  0  0  0  0
    2.6378    0.9521    0.0000 C   0  0  0  0  0  0  0  0  0  0  0  0
    3.3523    1.3646    0.0000 O   0  0  0  0  0  0  0  0  0  0  0  0
    1.9233    1.3646    0.0000 O   0  0  0  0  0  0  0  0  0  0  0  0
    3.3523   -0.2854    0.0000 C   0  0  0  0  0  0  0  0  0  0  0  0
    3.3523   -1.1104    0.0000 C   0  0  0  0  0  0  0  0  0  0  0  0
    4.0668   -1.5229    0.0000 C   0  0  0  0  0  0  0  0  0  0  0  0
    4.7812   -1.1104    0.0000 C   0  0  0  0  0  0  0  0  0  0  0  0
    4.7812   -0.2854    0.0000 F   0  0  0  0  0  0  0  0  0  0  0  0
    5.4957   -1.5229    0.0000 C   0  0  0  0  0  0  0  0  0  0  0  0
    6.2102   -1.1104    0.0000 F   0  0  0  0  0  0  0  0  0  0  0  0
    5.4957   -2.3479    0.0000 C   0  0  0  0  0  0  0  0  0  0  0  0
    6.2102   -2.7604    0.0000 C   0  0  0  0  0  0  0  0  0  0  0  0
    6.9246   -2.3479    0.0000 C   0  0  0  0  0  0  0  0  0  0  0  0
    7.6391   -2.7604    0.0000 C   0  0  0  0  0  0  0  0  0  0  0  0
    7.6391   -3.5854    0.0000 C   0  0  0  0  0  0  0  0  0  0  0  0
    6.9246   -3.9979    0.0000 C   0  0  0  0  0  0  0  0  0  0  0  0
    6.9246   -4.8229    0.0000 C   0  0  0  0  0  0  0  0  0  0  0  0
    7.6391   -5.2354    0.0000 N   0  0  0  0  0  0  0  0  0  0  0  0
    7.6391   -6.0604    0.0000 C   0  0  0  0  0  0  0  0  0  0  0  0
    8.0516   -6.7749    0.0000 C   0  0  0  0  0  0  0  0  0  0  0  0
    7.2266   -6.7749    0.0000 C   0  0  0  0  0  0  0  0  0  0  0  0
    6.2102   -3.5854    0.0000 C   0  0  0  0  0  0  0  0  0  0  0  0
    4.7812   -2.7604    0.0000 C   0  0  0  0  0  0  0  0  0  0  0  0
    4.7812   -3.5854    0.0000 F   0  0  0  0  0  0  0  0  0  0  0  0
    4.0668   -2.3479    0.0000 C   0  0  0  0  0  0  0  0  0  0  0  0
    3.3523   -2.7604    0.0000 F   0  0  0  0  0  0  0  0  0  0  0  0
    2.6378   -1.5229    0.0000 C   0  0  0  0  0  0  0  0  0  0  0  0
    1.9233   -1.1104    0.0000 C   0  0  0  0  0  0  0  0  0  0  0  0
    1.1387   -1.3654    0.0000 N   0  0  0  0  0  0  0  0  0  0  0  0
  1  2  1  0  0  0  0
  2  3  4  0  0  0  0
  3  4  4  0  0  0  0
  4  5  4  0  0  0  0
  5  6  1  0  0  0  0
  6  7  2  0  0  0  0
  6  8  1  0  0  0  0
  5  9  4  0  0  0  0
  9 10  4  0  0  0  0
 10 11  1  0  0  0  0
 11 12  4  0  0  0  0
 12 13  1  0  0  0  0
 12 14  4  0  0  0  0
 14 15  1  0  0  0  0
 14 16  4  0  0  0  0
 16 17  1  0  0  0  0
 17 18  4  0  0  0  0
 18 19  4  0  0  0  0
 19 20  4  0  0  0  0
 20 21  4  0  0  0  0
 21 22  1  0  0  0  0
 22 23  1  0  0  0  0
 23 24  1  0  0  0  0
 24 25  1  0  0  0  0
 25 26  1  0  0  0  0
 24 26  1  0  0  0  0
 21 27  4  0  0  0  0
 17 27  4  0  0  0  0
 16 28  4  0  0  0  0
 28 29  1  0  0  0  0
 28 30  4  0  0  0  0
 11 30  4  0  0  0  0
 30 31  1  0  0  0  0
 10 32  4  0  0  0  0
 32 33  4  0  0  0  0
  4 33  4  0  0  0  0
 33 34  4  0  0  0  0
  2 34  4  0  0  0  0
M  STY  1   1 DAT
M  SAL   1  1  34
M  SDT   1 MRV_IMPLICIT_H                                        
M  SDD   1     0.5304   -0.4125    DR    ALL  0       0  
M  SED   1 IMPL_H1
M  END
> <IC50(uM)>
0.0055

> <Outcome>
1.0

> <BindingDB ID>
1045604

> <BindingDB MonomerID>
501662

> <BindingDB Ligand Name>
US11028054, Example 60

> <Curation/DataSource>
US Patent

> <Article DOI>
?

> <PMID>
?

> <Patent Number>
US11028054

> <Authors>
Thunuguntla, SS; Hosahalli, S; Panigrahi, SK; Schwarz, M; Arit, M

> <Link to Ligand in BindingDB>
http://www.bindingdb.org/bind/chemsearch/marvin/MolStructure.jsp?monomerid=501662

> <Link to Ligand-Target Pair in BindingDB>
http://www.bindingdb.org/jsp/dbsearch/PrimarySearch_ki.jsp?energyterm=kJ/mole&tag=r21&monomerid=501662&enzyme=Dihydroorotate+dehydrogenase&column=ki&startPg=0&Increment=50&submit=Search

> <PubChem CID>
?

> <PubChem SID>
?

$$$$

  Mrv2115 07222212352D          

 26 28  0  0  0  0            999 V2000
   10.7171    1.2375    0.0000 O   0  0  0  0  0  0  0  0  0  0  0  0
   10.7171    0.4125    0.0000 C   0  0  0  0  0  0  0  0  0  0  0  0
   10.0026    0.0000    0.0000 C   0  0  0  0  0  0  0  0  0  0  0  0
    9.2881    0.4125    0.0000 C   0  0  0  0  0  0  0  0  0  0  0  0
    8.5737    0.0000    0.0000 C   0  0  0  0  0  0  0  0  0  0  0  0
    7.8592    0.4125    0.0000 N   0  0  0  0  0  0  0  0  0  0  0  0
    7.1447    0.0000    0.0000 C   0  0  0  0  0  0  0  0  0  0  0  0
    7.1447   -0.8250    0.0000 O   0  0  0  0  0  0  0  0  0  0  0  0
    6.4302    0.4125    0.0000 C   0  0  0  0  0  0  0  0  0  0  0  0
    5.7158    0.0000    0.0000 C   0  0  0  0  0  0  0  0  0  0  0  0
    5.0013    0.4125    0.0000 C   0  0  0  0  0  0  0  0  0  0  0  0
    5.0013    1.2375    0.0000 C   0  0  0  0  0  0  0  0  0  0  0  0
    4.2868    1.6500    0.0000 Cl  0  0  0  0  0  0  0  0  0  0  0  0
    5.7158    1.6500    0.0000 C   0  0  0  0  0  0  0  0  0  0  0  0
    6.4302    1.2375    0.0000 C   0  0  0  0  0  0  0  0  0  0  0  0
   11.4315    0.0000    0.0000 N   0  0  0  0  0  0  0  0  0  0  0  0
   12.1460    0.4125    0.0000 C   0  0  0  0  0  0  0  0  0  0  0  0
   12.1460    1.2375    0.0000 C   0  0  0  0  0  0  0  0  0  0  0  0
   12.8605    1.6500    0.0000 C   0  0  0  0  0  0  0  0  0  0  0  0
   13.5749    1.2375    0.0000 C   0  0  0  0  0  0  0  0  0  0  0  0
   13.5749    0.4125    0.0000 C   0  0  0  0  0  0  0  0  0  0  0  0
   14.2894    0.0000    0.0000 C   0  0  0  0  0  0  0  0  0  0  0  0
   14.2894   -0.8250    0.0000 C   0  0  0  0  0  0  0  0  0  0  0  0
   13.5749   -1.2375    0.0000 C   0  0  0  0  0  0  0  0  0  0  0  0
   12.8605   -0.8250    0.0000 C   0  0  0  0  0  0  0  0  0  0  0  0
   12.8605    0.0000    0.0000 C   0  0  0  0  0  0  0  0  0  0  0  0
  1  2  2  0  0  0  0
  2  3  1  0  0  0  0
  3  4  1  0  0  0  0
  4  5  1  0  0  0  0
  5  6  1  0  0  0  0
  6  7  1  0  0  0  0
  7  8  2  0  0  0  0
  7  9  1  0  0  0  0
  9 10  4  0  0  0  0
 10 11  4  0  0  0  0
 11 12  4  0  0  0  0
 12 13  1  0  0  0  0
 12 14  4  0  0  0  0
 14 15  4  0  0  0  0
  9 15  4  0  0  0  0
  2 16  1  0  0  0  0
 16 17  1  0  0  0  0
 17 18  1  0  0  0  0
 18 19  1  0  0  0  0
 19 20  1  0  0  0  0
 20 21  1  0  0  0  0
 21 22  4  0  0  0  0
 22 23  4  0  0  0  0
 23 24  4  0  0  0  0
 24 25  4  0  0  0  0
 25 26  4  0  0  0  0
 21 26  4  0  0  0  0
 17 26  1  0  0  0  0
M  END
> <IC50(uM)>
20.0

> <Outcome>
0.0

> <BindingDB ID>
50527787

> <BindingDB MonomerID>
50201631

> <BindingDB Ligand Name>
CHEMBL3900161

> <Curation/DataSource>
ChEMBL

> <Article DOI>
10.1021/acsmedchemlett.6b00316

> <PMID>
27994748

> <Patent Number>
?

> <Authors>
Lewis, TA; Sykes, DB; Law, JM; Mu??oz, B; Rustiguel, JK; Nonato, MC; Scadden, DT; Schreiber, SL

> <Link to Ligand in BindingDB>
http://www.bindingdb.org/bind/chemsearch/marvin/MolStructure.jsp?monomerid=50201631

> <Link to Ligand-Target Pair in BindingDB>
http://www.bindingdb.org/jsp/dbsearch/PrimarySearch_ki.jsp?energyterm=kJ/mole&tag=r21&monomerid=50201631&enzyme=Dihydroorotate+dehydrogenase&column=ki&startPg=0&Increment=50&submit=Search

> <PubChem CID>
2578400

> <PubChem SID>
375979419

$$$$

  Mrv2115 07222212352D          

 21 22  0  0  0  0            999 V2000
    0.7145   -1.2375    0.0000 O   0  0  0  0  0  0  0  0  0  0  0  0
    1.4289   -1.6500    0.0000 C   0  0  0  0  0  0  0  0  0  0  0  0
    2.1434   -1.2375    0.0000 O   0  0  0  0  0  0  0  0  0  0  0  0
    1.4289   -2.4750    0.0000 C   0  0  0  0  0  0  0  0  0  0  0  0
    2.1434   -2.8875    0.0000 N   0  0  0  0  0  0  0  0  0  0  0  0
    2.1434   -3.7125    0.0000 C   0  0  0  0  0  0  0  0  0  0  0  0
    2.8579   -4.1250    0.0000 O   0  0  0  0  0  0  0  0  0  0  0  0
    1.4289   -4.1250    0.0000 N   0  0  0  0  0  0  0  0  0  0  0  0
    0.7145   -3.7125    0.0000 C   0  0  0  0  0  0  0  0  0  0  0  0
    0.0000   -4.1250    0.0000 O   0  0  0  0  0  0  0  0  0  0  0  0
    0.7145   -2.8875    0.0000 C   0  0  0  0  0  0  0  0  0  0  0  0
    0.0000   -2.4750    0.0000 C   0  0  0  0  0  0  0  0  0  0  0  0
   -0.7145   -2.8875    0.0000 C   0  0  0  0  0  0  0  0  0  0  0  0
   -1.4289   -2.4750    0.0000 C   0  0  0  0  0  0  0  0  0  0  0  0
   -2.1434   -2.8875    0.0000 C   0  0  0  0  0  0  0  0  0  0  0  0
   -2.8579   -2.4750    0.0000 C   0  0  0  0  0  0  0  0  0  0  0  0
   -2.8579   -1.6500    0.0000 C   0  0  0  0  0  0  0  0  0  0  0  0
   -2.1434   -1.2375    0.0000 C   0  0  0  0  0  0  0  0  0  0  0  0
   -1.4289   -1.6500    0.0000 C   0  0  0  0  0  0  0  0  0  0  0  0
   -0.7145   -1.2375    0.0000 C   0  0  0  0  0  0  0  0  0  0  0  0
    0.0000   -1.6500    0.0000 O   0  0  0  0  0  0  0  0  0  0  0  0
  1  2  2  0  0  0  0
  2  3  1  0  0  0  0
  2  4  1  0  0  0  0
  4  5  4  0  0  0  0
  5  6  4  0  0  0  0
  6  7  2  0  0  0  0
  6  8  4  0  0  0  0
  8  9  4  0  0  0  0
  9 10  2  0  0  0  0
  9 11  4  0  0  0  0
  4 11  4  0  0  0  0
 11 12  1  0  0  0  0
 12 13  1  0  0  0  0
 13 14  1  0  0  0  0
 14 15  4  0  0  0  0
 15 16  4  0  0  0  0
 16 17  4  0  0  0  0
 17 18  4  0  0  0  0
 18 19  4  0  0  0  0
 14 19  4  0  0  0  0
 19 20  1  0  0  0  0
 20 21  1  0  0  0  0
M  STY  2   1 DAT   2 DAT
M  SAL   1  1   5
M  SDT   1 MRV_IMPLICIT_H                                        
M  SDD   1     0.5304   -0.4125    DR    ALL  0       0  
M  SED   1 IMPL_H1
M  SAL   2  1   8
M  SDT   2 MRV_IMPLICIT_H                                        
M  SDD   2     0.6482   -0.4125    DR    ALL  0       0  
M  SED   2 IMPL_H1
M  END
> <IC50(uM)>
5.0

> <Outcome>
0.0

> <BindingDB ID>
50555422

> <BindingDB MonomerID>
50211699

> <BindingDB Ligand Name>
CHEMBL3924053

> <Curation/DataSource>
ChEMBL

> <Article DOI>
10.1016/j.bmc.2017.01.009

> <PMID>
28118956

> <Patent Number>
?

> <Authors>
Inaoka, DK; Iida, M; Hashimoto, S; Tabuchi, T; Kuranaga, T; Balogun, EO; Honma, T; Tanaka, A; Harada, S; Nara, T; Kita, K; Inoue, M

> <Link to Ligand in BindingDB>
http://www.bindingdb.org/bind/chemsearch/marvin/MolStructure.jsp?monomerid=50211699

> <Link to Ligand-Target Pair in BindingDB>
http://www.bindingdb.org/jsp/dbsearch/PrimarySearch_ki.jsp?energyterm=kJ/mole&tag=r21&monomerid=50211699&enzyme=Dihydroorotate+dehydrogenase&column=ki&startPg=0&Increment=50&submit=Search

> <PubChem CID>
134141914

> <PubChem SID>
375983042

$$$$

  Mrv2115 07222212352D          

 38 42  0  0  0  0            999 V2000
   -1.8659    1.4455    0.0000 C   0  0  0  0  0  0  0  0  0  0  0  0
   -2.6909    1.4455    0.0000 C   0  0  0  0  0  0  0  0  0  0  0  0
   -3.1034    0.7310    0.0000 O   0  0  0  0  0  0  0  0  0  0  0  0
   -2.6909    0.0165    0.0000 C   0  0  0  0  0  0  0  0  0  0  0  0
   -1.8659    0.0165    0.0000 C   0  0  0  0  0  0  0  0  0  0  0  0
   -1.4534   -0.6979    0.0000 C   0  0  0  0  0  0  0  0  0  0  0  0
   -0.6284   -0.6979    0.0000 N   0  0  0  0  0  0  0  0  0  0  0  0
   -0.1435   -1.3654    0.0000 N   0  0  0  0  0  0  0  0  0  0  0  0
    0.6411   -1.1104    0.0000 C   0  0  0  0  0  0  0  0  0  0  0  0
    0.6411   -0.2854    0.0000 N   0  0  0  0  0  0  0  0  0  0  0  0
   -0.1435   -0.0305    0.0000 C   0  0  0  0  0  0  0  0  0  0  0  0
   -0.3984    0.7541    0.0000 O   0  0  0  0  0  0  0  0  0  0  0  0
    1.3556    0.1271    0.0000 C   0  0  0  0  0  0  0  0  0  0  0  0
    2.0701   -0.2854    0.0000 C   0  0  0  0  0  0  0  0  0  0  0  0
    2.0701   -1.1104    0.0000 C   0  0  0  0  0  0  0  0  0  0  0  0
    1.3556   -1.5229    0.0000 C   0  0  0  0  0  0  0  0  0  0  0  0
   -1.8659   -1.4124    0.0000 C   0  0  0  0  0  0  0  0  0  0  0  0
   -1.4534   -2.1269    0.0000 F   0  0  0  0  0  0  0  0  0  0  0  0
   -2.6909   -1.4124    0.0000 C   0  0  0  0  0  0  0  0  0  0  0  0
   -3.1034   -0.6979    0.0000 C   0  0  0  0  0  0  0  0  0  0  0  0
   -3.9284   -0.6979    0.0000 C   0  0  0  0  0  0  0  0  0  0  0  0
   -4.3409    0.0165    0.0000 O   0  0  0  0  0  0  0  0  0  0  0  0
   -4.3409   -1.4124    0.0000 N   0  0  0  0  0  0  0  0  0  0  0  0
   -5.1659   -1.4124    0.0000 C   0  0  0  0  0  0  0  0  0  0  0  0
   -5.5784   -2.1269    0.0000 C   0  0  0  0  0  0  0  0  0  0  0  0
   -5.1659   -2.8414    0.0000 F   0  0  0  0  0  0  0  0  0  0  0  0
   -6.4034   -2.1269    0.0000 C   0  0  0  0  0  0  0  0  0  0  0  0
   -6.8159   -1.4124    0.0000 C   0  0  0  0  0  0  0  0  0  0  0  0
   -7.6409   -1.4124    0.0000 F   0  0  0  0  0  0  0  0  0  0  0  0
   -6.4034   -0.6979    0.0000 C   0  0  0  0  0  0  0  0  0  0  0  0
   -5.5784   -0.6979    0.0000 C   0  0  0  0  0  0  0  0  0  0  0  0
   -5.1659    0.0165    0.0000 F   0  0  0  0  0  0  0  0  0  0  0  0
   -3.1034    2.1599    0.0000 C   0  0  0  0  0  0  0  0  0  0  0  0
   -3.9284    2.1599    0.0000 C   0  0  0  0  0  0  0  0  0  0  0  0
   -4.3409    2.8744    0.0000 C   0  0  0  0  0  0  0  0  0  0  0  0
   -3.9284    3.5889    0.0000 C   0  0  0  0  0  0  0  0  0  0  0  0
   -3.1034    3.5889    0.0000 C   0  0  0  0  0  0  0  0  0  0  0  0
   -2.6909    2.8744    0.0000 C   0  0  0  0  0  0  0  0  0  0  0  0
  1  2  1  0  0  0  0
  2  3  1  0  0  0  0
  3  4  1  0  0  0  0
  4  5  4  0  0  0  0
  5  6  4  0  0  0  0
  6  7  1  0  0  0  0
  7  8  4  0  0  0  0
  8  9  4  0  0  0  0
  9 10  4  0  0  0  0
 10 11  4  0  0  0  0
  7 11  4  0  0  0  0
 11 12  2  0  0  0  0
 10 13  1  0  0  0  0
 13 14  1  0  0  0  0
 14 15  1  0  0  0  0
 15 16  1  0  0  0  0
  9 16  1  0  0  0  0
  6 17  4  0  0  0  0
 17 18  1  0  0  0  0
 17 19  4  0  0  0  0
 19 20  4  0  0  0  0
  4 20  4  0  0  0  0
 20 21  1  0  0  0  0
 21 22  2  0  0  0  0
 21 23  1  0  0  0  0
 23 24  1  0  0  0  0
 24 25  4  0  0  0  0
 25 26  1  0  0  0  0
 25 27  4  0  0  0  0
 27 28  4  0  0  0  0
 28 29  1  0  0  0  0
 28 30  4  0  0  0  0
 30 31  4  0  0  0  0
 24 31  4  0  0  0  0
 31 32  1  0  0  0  0
  2 33  1  0  0  0  0
 33 34  1  0  0  0  0
 34 35  1  0  0  0  0
 35 36  1  0  0  0  0
 36 37  1  0  0  0  0
 37 38  1  0  0  0  0
 33 38  1  0  0  0  0
M  END
> <IC50(uM)>
0.02

> <Outcome>
1.0

> <BindingDB ID>
1020546

> <BindingDB MonomerID>
490485

> <BindingDB Ligand Name>
2-[(1S)-1-cyclohexylethoxy]-5-fluoro-4-(3-oxo-5,6,7,8-tetrahydro[1,2,4]triazolo[4,3-a]pyridin-2(3H)-yl)-N-(2,4,6-trifluorophenyl)benzamide::US10968216, Example 153

> <Curation/DataSource>
US Patent

> <Article DOI>
?

> <PMID>
?

> <Patent Number>
US10968216

> <Authors>
Gradl, SN; Nguyen, D; Eis, K; Gunther, J; Stellfeld, T; Janzer, A; Christian, S; Mueller, T; Sheikh, SE; Zhou, HJ; Zhao, C; Sykes, DB; Ferrara, SJ; Liu, K; Herbert, SA; Merz, C; Niehues, M; Nising, CF; Schafer, M; Zimmermann, K; Knablein, J; Thede, K; Faupel, T

> <Link to Ligand in BindingDB>
http://www.bindingdb.org/bind/chemsearch/marvin/MolStructure.jsp?monomerid=490485

> <Link to Ligand-Target Pair in BindingDB>
http://www.bindingdb.org/jsp/dbsearch/PrimarySearch_ki.jsp?energyterm=kJ/mole&tag=r21&monomerid=490485&enzyme=Dihydroorotate+dehydrogenase&column=ki&startPg=0&Increment=50&submit=Search

> <PubChem CID>
134473988

> <PubChem SID>
447117212

$$$$

  Mrv2115 07222212352D          

 25 27  0  0  0  0            999 V2000
    2.1434   -1.2375    0.0000 C   0  0  0  0  0  0  0  0  0  0  0  0
    2.8579   -0.8250    0.0000 C   0  0  0  0  0  0  0  0  0  0  0  0
    2.8579    0.0000    0.0000 C   0  0  0  0  0  0  0  0  0  0  0  0
    3.5724    0.4125    0.0000 C   0  0  0  0  0  0  0  0  0  0  0  0
    4.2868    0.0000    0.0000 C   0  0  0  0  0  0  0  0  0  0  0  0
    5.0013    0.4125    0.0000 C   0  0  0  0  0  0  0  0  0  0  0  0
    5.0013    1.2375    0.0000 O   0  0  0  0  0  0  0  0  0  0  0  0
    5.7158    0.0000    0.0000 N   0  0  0  0  0  0  0  0  0  0  0  0
    6.4302    0.4125    0.0000 C   0  0  0  0  0  0  0  0  0  0  0  0
    7.1447    0.0000    0.0000 C   0  0  0  0  0  0  0  0  0  0  0  0
    7.8592    0.4125    0.0000 C   0  0  0  0  0  0  0  0  0  0  0  0
    7.8592    1.2375    0.0000 O   0  0  0  0  0  0  0  0  0  0  0  0
    8.5737    0.0000    0.0000 N   0  0  0  0  0  0  0  0  0  0  0  0
    9.2881    0.4125    0.0000 C   0  0  0  0  0  0  0  0  0  0  0  0
    9.2881    1.2375    0.0000 C   0  0  0  0  0  0  0  0  0  0  0  0
   10.0026    1.6500    0.0000 C   0  0  0  0  0  0  0  0  0  0  0  0
   10.7171    1.2375    0.0000 C   0  0  0  0  0  0  0  0  0  0  0  0
   10.7171    0.4125    0.0000 C   0  0  0  0  0  0  0  0  0  0  0  0
   11.4315    0.0000    0.0000 C   0  0  0  0  0  0  0  0  0  0  0  0
   11.4315   -0.8250    0.0000 C   0  0  0  0  0  0  0  0  0  0  0  0
   10.7171   -1.2375    0.0000 C   0  0  0  0  0  0  0  0  0  0  0  0
   10.0026   -0.8250    0.0000 C   0  0  0  0  0  0  0  0  0  0  0  0
   10.0026    0.0000    0.0000 C   0  0  0  0  0  0  0  0  0  0  0  0
    4.2868   -0.8250    0.0000 C   0  0  0  0  0  0  0  0  0  0  0  0
    3.5724   -1.2375    0.0000 C   0  0  0  0  0  0  0  0  0  0  0  0
  1  2  1  0  0  0  0
  2  3  4  0  0  0  0
  3  4  4  0  0  0  0
  4  5  4  0  0  0  0
  5  6  1  0  0  0  0
  6  7  2  0  0  0  0
  6  8  1  0  0  0  0
  8  9  1  0  0  0  0
  9 10  1  0  0  0  0
 10 11  1  0  0  0  0
 11 12  2  0  0  0  0
 11 13  1  0  0  0  0
 13 14  1  0  0  0  0
 14 15  1  0  0  0  0
 15 16  1  0  0  0  0
 16 17  1  0  0  0  0
 17 18  1  0  0  0  0
 18 19  4  0  0  0  0
 19 20  4  0  0  0  0
 20 21  4  0  0  0  0
 21 22  4  0  0  0  0
 22 23  4  0  0  0  0
 18 23  4  0  0  0  0
 14 23  1  0  0  0  0
  5 24  4  0  0  0  0
 24 25  4  0  0  0  0
  2 25  4  0  0  0  0
M  END
> <IC50(uM)>
1.9

> <Outcome>
0.0

> <BindingDB ID>
50527782

> <BindingDB MonomerID>
50201626

> <BindingDB Ligand Name>
CHEMBL3184332

> <Curation/DataSource>
ChEMBL

> <Article DOI>
10.1021/acsmedchemlett.6b00316

> <PMID>
27994748

> <Patent Number>
?

> <Authors>
Lewis, TA; Sykes, DB; Law, JM; Mu??oz, B; Rustiguel, JK; Nonato, MC; Scadden, DT; Schreiber, SL

> <Link to Ligand in BindingDB>
http://www.bindingdb.org/bind/chemsearch/marvin/MolStructure.jsp?monomerid=50201626

> <Link to Ligand-Target Pair in BindingDB>
http://www.bindingdb.org/jsp/dbsearch/PrimarySearch_ki.jsp?energyterm=kJ/mole&tag=r21&monomerid=50201626&enzyme=Dihydroorotate+dehydrogenase&column=ki&startPg=0&Increment=50&submit=Search

> <PubChem CID>
71768309

> <PubChem SID>
375979414

$$$$

  Mrv2115 07222212352D          

 20 23  0  0  0  0            999 V2000
    2.6378   -2.3479    0.0000 C   0  0  0  0  0  0  0  0  0  0  0  0
    1.9233   -2.7604    0.0000 C   0  0  0  0  0  0  0  0  0  0  0  0
    1.9233   -3.5854    0.0000 C   0  0  0  0  0  0  0  0  0  0  0  0
    1.2089   -3.9979    0.0000 C   0  0  0  0  0  0  0  0  0  0  0  0
    1.2089   -4.8229    0.0000 N   0  0  0  0  0  0  0  0  0  0  0  0
    1.9233   -5.2354    0.0000 C   0  0  0  0  0  0  0  0  0  0  0  0
    2.6378   -4.8229    0.0000 C   0  0  0  0  0  0  0  0  0  0  0  0
    3.3523   -5.2354    0.0000 C   0  0  0  0  0  0  0  0  0  0  0  0
    3.3523   -6.0604    0.0000 C   0  0  0  0  0  0  0  0  0  0  0  0
    2.6378   -6.4729    0.0000 C   0  0  0  0  0  0  0  0  0  0  0  0
    1.9233   -6.0604    0.0000 C   0  0  0  0  0  0  0  0  0  0  0  0
    2.8093   -7.2799    0.0000 O   0  0  0  0  0  0  0  0  0  0  0  0
    3.6298   -7.3662    0.0000 C   0  0  0  0  0  0  0  0  0  0  0  0
    3.9654   -6.6125    0.0000 O   0  0  0  0  0  0  0  0  0  0  0  0
    0.4944   -3.5854    0.0000 N   0  0  0  0  0  0  0  0  0  0  0  0
   -0.2902   -3.8404    0.0000 N   0  0  0  0  0  0  0  0  0  0  0  0
   -0.7751   -3.1729    0.0000 C   0  0  0  0  0  0  0  0  0  0  0  0
   -0.2902   -2.5055    0.0000 N   0  0  0  0  0  0  0  0  0  0  0  0
    0.4944   -2.7604    0.0000 C   0  0  0  0  0  0  0  0  0  0  0  0
    1.2089   -2.3479    0.0000 N   0  0  0  0  0  0  0  0  0  0  0  0
  1  2  1  0  0  0  0
  2  3  4  0  0  0  0
  3  4  4  0  0  0  0
  4  5  1  0  0  0  0
  5  6  1  0  0  0  0
  6  7  4  0  0  0  0
  7  8  4  0  0  0  0
  8  9  4  0  0  0  0
  9 10  4  0  0  0  0
 10 11  4  0  0  0  0
  6 11  4  0  0  0  0
 10 12  1  0  0  0  0
 12 13  1  0  0  0  0
 13 14  1  0  0  0  0
  9 14  1  0  0  0  0
  4 15  4  0  0  0  0
 15 16  4  0  0  0  0
 16 17  4  0  0  0  0
 17 18  4  0  0  0  0
 18 19  4  0  0  0  0
 15 19  4  0  0  0  0
 19 20  4  0  0  0  0
  2 20  4  0  0  0  0
M  END
> <IC50(uM)>
100.0

> <Outcome>
0.0

> <BindingDB ID>
50643150

> <BindingDB MonomerID>
50345403

> <BindingDB Ligand Name>
CHEMBL1784579::N-(Benzo[d][1,3]dioxol-5-yl)-5-methyl-[1,2,4]triazolo[1,5-a]pyrimidin-7-amine

> <Curation/DataSource>
ChEMBL

> <Article DOI>
10.1021/jm200265b

> <PMID>
21517059

> <Patent Number>
?

> <Authors>
Gujjar, R; El Mazouni, F; White, KL; White, J; Creason, S; Shackleford, DM; Deng, X; Charman, WN; Bathurst, I; Burrows, J; Floyd, DM; Matthews, D; Buckner, FS; Charman, SA; Phillips, MA; Rathod, PK

> <Link to Ligand in BindingDB>
http://www.bindingdb.org/bind/chemsearch/marvin/MolStructure.jsp?monomerid=50345403

> <Link to Ligand-Target Pair in BindingDB>
http://www.bindingdb.org/jsp/dbsearch/PrimarySearch_ki.jsp?energyterm=kJ/mole&tag=r21&monomerid=50345403&enzyme=Dihydroorotate+dehydrogenase&column=ki&startPg=0&Increment=50&submit=Search

> <PubChem CID>
22431257

> <PubChem SID>
131348339

$$$$

  Mrv2115 07222212352D          

 25 27  0  0  0  0            999 V2000
    2.1434   -2.8875    0.0000 C   0  0  0  0  0  0  0  0  0  0  0  0
    2.1434   -3.7125    0.0000 C   0  0  0  0  0  0  0  0  0  0  0  0
    1.4289   -4.1250    0.0000 C   0  0  0  0  0  0  0  0  0  0  0  0
    1.4289   -4.9500    0.0000 C   0  0  0  0  0  0  0  0  0  0  0  0
    2.1434   -5.3625    0.0000 C   0  0  0  0  0  0  0  0  0  0  0  0
    2.1434   -6.1875    0.0000 N   0  0  0  0  0  0  0  0  0  0  0  0
    1.4289   -6.6000    0.0000 C   0  0  0  0  0  0  0  0  0  0  0  0
    1.4289   -7.4250    0.0000 C   0  0  0  0  0  0  0  0  0  0  0  0
    0.7145   -7.8375    0.0000 N   0  0  0  0  0  0  0  0  0  0  0  0
    0.0000   -7.4250    0.0000 C   0  0  0  0  0  0  0  0  0  0  0  0
   -0.7145   -7.8375    0.0000 C   0  0  0  0  0  0  0  0  0  0  0  0
   -0.7145   -8.6625    0.0000 C   0  0  0  0  0  0  0  0  0  0  0  0
   -1.4289   -9.0750    0.0000 C   0  0  0  0  0  0  0  0  0  0  0  0
   -2.1434   -8.6625    0.0000 C   0  0  0  0  0  0  0  0  0  0  0  0
   -2.1434   -7.8375    0.0000 C   0  0  0  0  0  0  0  0  0  0  0  0
   -2.8579   -7.4250    0.0000 Cl  0  0  0  0  0  0  0  0  0  0  0  0
   -1.4289   -7.4250    0.0000 C   0  0  0  0  0  0  0  0  0  0  0  0
    0.0000   -6.6000    0.0000 C   0  0  0  0  0  0  0  0  0  0  0  0
   -0.7145   -6.1875    0.0000 C   0  0  0  0  0  0  0  0  0  0  0  0
    0.7145   -6.1875    0.0000 C   0  0  0  0  0  0  0  0  0  0  0  0
    2.8579   -4.9500    0.0000 C   0  0  0  0  0  0  0  0  0  0  0  0
    3.5724   -5.3625    0.0000 C   0  0  0  0  0  0  0  0  0  0  0  0
    4.2868   -4.9500    0.0000 O   0  0  0  0  0  0  0  0  0  0  0  0
    3.5724   -6.1875    0.0000 O   0  0  0  0  0  0  0  0  0  0  0  0
    2.8579   -4.1250    0.0000 C   0  0  0  0  0  0  0  0  0  0  0  0
  1  2  1  0  0  0  0
  2  3  4  0  0  0  0
  3  4  4  0  0  0  0
  4  5  4  0  0  0  0
  5  6  1  0  0  0  0
  6  7  1  0  0  0  0
  7  8  4  0  0  0  0
  8  9  4  0  0  0  0
  9 10  4  0  0  0  0
 10 11  1  0  0  0  0
 11 12  4  0  0  0  0
 12 13  4  0  0  0  0
 13 14  4  0  0  0  0
 14 15  4  0  0  0  0
 15 16  1  0  0  0  0
 15 17  4  0  0  0  0
 11 17  4  0  0  0  0
 10 18  4  0  0  0  0
 18 19  1  0  0  0  0
 18 20  4  0  0  0  0
  7 20  4  0  0  0  0
  5 21  4  0  0  0  0
 21 22  1  0  0  0  0
 22 23  2  0  0  0  0
 22 24  1  0  0  0  0
 21 25  4  0  0  0  0
  2 25  4  0  0  0  0
M  END
> <IC50(uM)>
0.01

> <Outcome>
1.0

> <BindingDB ID>
220009

> <BindingDB MonomerID>
102479

> <BindingDB Ligand Name>
US8536165, 76

> <Curation/DataSource>
US Patent

> <Article DOI>
?

> <PMID>
?

> <Patent Number>
US8536165

> <Authors>
Castro Palomino Laria, JC; Terricabras Belart, E; Erra Sola, M; Navarro Romero, E; Fonquerna Pou, S; Cardus Figueras, A; Lozoya Toribio, ME

> <Link to Ligand in BindingDB>
http://www.bindingdb.org/bind/chemsearch/marvin/MolStructure.jsp?monomerid=102479

> <Link to Ligand-Target Pair in BindingDB>
http://www.bindingdb.org/jsp/dbsearch/PrimarySearch_ki.jsp?energyterm=kJ/mole&tag=r21&monomerid=102479&enzyme=Dihydroorotate+dehydrogenase&column=ki&startPg=0&Increment=50&submit=Search

> <PubChem CID>
25188119

> <PubChem SID>
172097770

$$$$

  Mrv2115 07222212352D          

 34 36  0  0  0  0            999 V2000
    4.2868   -2.4750    0.0000 C   0  0  0  0  0  0  0  0  0  0  0  0
    3.5724   -2.8875    0.0000 C   0  0  0  0  0  0  0  0  0  0  0  0
    2.8579   -2.4750    0.0000 O   0  0  0  0  0  0  0  0  0  0  0  0
    2.1434   -2.8875    0.0000 C   0  0  0  0  0  0  0  0  0  0  0  0
    2.1434   -3.7125    0.0000 C   0  0  0  0  0  0  0  0  0  0  0  0
    1.4289   -4.1250    0.0000 C   0  0  0  0  0  0  0  0  0  0  0  0
    1.4289   -4.9500    0.0000 N   0  0  0  0  0  0  0  0  0  0  0  0
    2.0964   -5.4349    0.0000 N   0  0  0  0  0  0  0  0  0  0  0  0
    1.8414   -6.2195    0.0000 C   0  0  0  0  0  0  0  0  0  0  0  0
    2.3264   -6.8870    0.0000 C   0  0  0  0  0  0  0  0  0  0  0  0
    2.9938   -6.4021    0.0000 C   0  0  0  0  0  0  0  0  0  0  0  0
    1.6589   -7.3719    0.0000 C   0  0  0  0  0  0  0  0  0  0  0  0
    2.8113   -7.5544    0.0000 O   0  0  0  0  0  0  0  0  0  0  0  0
    1.0164   -6.2195    0.0000 N   0  0  0  0  0  0  0  0  0  0  0  0
    0.5315   -6.8870    0.0000 C   0  0  0  0  0  0  0  0  0  0  0  0
    0.7615   -5.4349    0.0000 C   0  0  0  0  0  0  0  0  0  0  0  0
   -0.0231   -5.1800    0.0000 O   0  0  0  0  0  0  0  0  0  0  0  0
    0.7145   -3.7125    0.0000 C   0  0  0  0  0  0  0  0  0  0  0  0
    0.7145   -2.8875    0.0000 C   0  0  0  0  0  0  0  0  0  0  0  0
    1.4289   -2.4750    0.0000 C   0  0  0  0  0  0  0  0  0  0  0  0
    1.4289   -1.6500    0.0000 C   0  0  0  0  0  0  0  0  0  0  0  0
    2.1434   -1.2375    0.0000 O   0  0  0  0  0  0  0  0  0  0  0  0
    0.7145   -1.2375    0.0000 N   0  0  0  0  0  0  0  0  0  0  0  0
    0.7145   -0.4125    0.0000 C   0  0  0  0  0  0  0  0  0  0  0  0
    0.0000    0.0000    0.0000 C   0  0  0  0  0  0  0  0  0  0  0  0
   -0.7145   -0.4125    0.0000 F   0  0  0  0  0  0  0  0  0  0  0  0
    0.0000    0.8250    0.0000 C   0  0  0  0  0  0  0  0  0  0  0  0
    0.7145    1.2375    0.0000 C   0  0  0  0  0  0  0  0  0  0  0  0
    1.4289    0.8250    0.0000 C   0  0  0  0  0  0  0  0  0  0  0  0
    1.4289    0.0000    0.0000 C   0  0  0  0  0  0  0  0  0  0  0  0
    2.1434   -0.4125    0.0000 Cl  0  0  0  0  0  0  0  0  0  0  0  0
    3.5724   -3.7125    0.0000 C   0  0  0  0  0  0  0  0  0  0  0  0
    4.2868   -4.1250    0.0000 F   0  0  0  0  0  0  0  0  0  0  0  0
    2.8579   -4.1250    0.0000 F   0  0  0  0  0  0  0  0  0  0  0  0
  1  2  1  0  0  0  0
  2  3  1  0  0  0  0
  3  4  1  0  0  0  0
  4  5  4  0  0  0  0
  5  6  4  0  0  0  0
  6  7  1  0  0  0  0
  7  8  4  0  0  0  0
  8  9  4  0  0  0  0
  9 10  1  0  0  0  0
 10 11  1  0  0  0  0
 10 12  1  0  0  0  0
 10 13  1  0  0  0  0
  9 14  4  0  0  0  0
 14 15  1  0  0  0  0
 14 16  4  0  0  0  0
  7 16  4  0  0  0  0
 16 17  2  0  0  0  0
  6 18  4  0  0  0  0
 18 19  4  0  0  0  0
 19 20  4  0  0  0  0
  4 20  4  0  0  0  0
 20 21  1  0  0  0  0
 21 22  2  0  0  0  0
 21 23  1  0  0  0  0
 23 24  1  0  0  0  0
 24 25  4  0  0  0  0
 25 26  1  0  0  0  0
 25 27  4  0  0  0  0
 27 28  4  0  0  0  0
 28 29  4  0  0  0  0
 29 30  4  0  0  0  0
 24 30  4  0  0  0  0
 30 31  1  0  0  0  0
  2 32  1  0  0  0  0
 32 33  1  0  0  0  0
 32 34  1  0  0  0  0
M  END
> <IC50(uM)>
0.021

> <Outcome>
1.0

> <BindingDB ID>
1098795; 972641

> <BindingDB MonomerID>
470519

> <BindingDB Ligand Name>
N-(2-chloro-6-fluorophenyl)-2-{[1,1-difluoropropan-2-yl]oxy}-4-[3-(2-hydroxypropan-2-yl)-4-methyl-5-oxo-4,5-dihydro-1H-1,2,4-triazol-1-yl]benzamide (Racemic)::US10815215, Example 179::US11130745, Example 179; N-(2-chloro-6-fluorophenyl)-2-{[1,1-difluoropropan-2-yl]oxy}-4-[3-(2-hydroxypropan-2-yl)-4-methyl-5-oxo-4,5-dihydro-1H-1,2,4-triazol-1-yl]benzamide (Racemic)::US10815215, Example 179

> <Curation/DataSource>
US Patent

> <Article DOI>
?

> <PMID>
?

> <Patent Number>
US11130745; US10815215

> <Authors>
Gradl, SN; Nguyen, D; Eis, K; Gunther, J; Stellfeld, T; Janzer, A; Christian, S; Muller, T; Sheikh, SE; Sykes, DB; Ferrara, SJ; Krober, M; Merz, C; Niehues, M; Schafer, M; Zimmermann, K; Nising, CF; Gradl, SN; Nguyen, D; Eis, K; Gunther, J; Stellfeld, T; Janzer, A; Christian, S; Muller, T; Sheikh, SE; Zhou, HJ; Zhao, C; Sykes, DB; Ferrara, SJ; Liu, K; Krober, M; Merz, C; Niehues, M; Schafer, M; Zimmermann, K; Nising, CF

> <Link to Ligand in BindingDB>
http://www.bindingdb.org/bind/chemsearch/marvin/MolStructure.jsp?monomerid=470519

> <Link to Ligand-Target Pair in BindingDB>
http://www.bindingdb.org/jsp/dbsearch/PrimarySearch_ki.jsp?energyterm=kJ/mole&tag=r21&monomerid=470519&enzyme=Dihydroorotate+dehydrogenase&column=ki&startPg=0&Increment=50&submit=Search

> <PubChem CID>
134469960

> <PubChem SID>
441609695

$$$$

  Mrv2115 07222212352D          

 26 29  0  0  0  0            999 V2000
    6.8513   -2.4750    0.0000 C   0  0  0  0  0  0  0  0  0  0  0  0
    6.1368   -2.8875    0.0000 C   0  0  0  0  0  0  0  0  0  0  0  0
    6.1368   -3.7125    0.0000 C   0  0  0  0  0  0  0  0  0  0  0  0
    5.4223   -4.1250    0.0000 C   0  0  0  0  0  0  0  0  0  0  0  0
    5.4223   -4.9500    0.0000 N   0  0  0  0  0  0  0  0  0  0  0  0
    6.1368   -5.3625    0.0000 C   0  0  0  0  0  0  0  0  0  0  0  0
    6.8513   -4.9500    0.0000 C   0  0  0  0  0  0  0  0  0  0  0  0
    7.5658   -5.3625    0.0000 C   0  0  0  0  0  0  0  0  0  0  0  0
    7.5658   -6.1875    0.0000 C   0  0  0  0  0  0  0  0  0  0  0  0
    8.2802   -6.6000    0.0000 C   0  0  0  0  0  0  0  0  0  0  0  0
    8.2802   -7.4250    0.0000 C   0  0  0  0  0  0  0  0  0  0  0  0
    7.5658   -7.8375    0.0000 C   0  0  0  0  0  0  0  0  0  0  0  0
    7.5658   -8.6625    0.0000 Cl  0  0  0  0  0  0  0  0  0  0  0  0
    6.8513   -7.4250    0.0000 C   0  0  0  0  0  0  0  0  0  0  0  0
    6.8513   -6.6000    0.0000 C   0  0  0  0  0  0  0  0  0  0  0  0
    6.1368   -6.1875    0.0000 C   0  0  0  0  0  0  0  0  0  0  0  0
    4.7079   -3.7125    0.0000 N   0  0  0  0  0  0  0  0  0  0  0  0
    3.9232   -3.9674    0.0000 N   0  0  0  0  0  0  0  0  0  0  0  0
    3.4383   -3.3000    0.0000 C   0  0  0  0  0  0  0  0  0  0  0  0
    2.6133   -3.3000    0.0000 C   0  0  0  0  0  0  0  0  0  0  0  0
    1.7883   -3.3000    0.0000 C   0  0  0  0  0  0  0  0  0  0  0  0
    2.6133   -2.4750    0.0000 F   0  0  0  0  0  0  0  0  0  0  0  0
    2.6133   -4.1250    0.0000 F   0  0  0  0  0  0  0  0  0  0  0  0
    3.9232   -2.6326    0.0000 N   0  0  0  0  0  0  0  0  0  0  0  0
    4.7079   -2.8875    0.0000 C   0  0  0  0  0  0  0  0  0  0  0  0
    5.4223   -2.4750    0.0000 N   0  0  0  0  0  0  0  0  0  0  0  0
  1  2  1  0  0  0  0
  2  3  4  0  0  0  0
  3  4  4  0  0  0  0
  4  5  1  0  0  0  0
  5  6  1  0  0  0  0
  6  7  1  0  0  0  0
  7  8  1  0  0  0  0
  8  9  1  0  0  0  0
  9 10  4  0  0  0  0
 10 11  4  0  0  0  0
 11 12  4  0  0  0  0
 12 13  1  0  0  0  0
 12 14  4  0  0  0  0
 14 15  4  0  0  0  0
  9 15  4  0  0  0  0
 15 16  1  0  0  0  0
  6 16  1  0  0  0  0
  4 17  4  0  0  0  0
 17 18  4  0  0  0  0
 18 19  4  0  0  0  0
 19 20  1  0  0  0  0
 20 21  1  0  0  0  0
 20 22  1  0  0  0  0
 20 23  1  0  0  0  0
 19 24  4  0  0  0  0
 24 25  4  0  0  0  0
 17 25  4  0  0  0  0
 25 26  4  0  0  0  0
  2 26  4  0  0  0  0
M  END
> <IC50(uM)>
100.0

> <Outcome>
0.0

> <BindingDB ID>
51372997; 51372998

> <BindingDB MonomerID>
50555365; 50555370

> <BindingDB Ligand Name>
CHEMBL4751920; CHEMBL4764723

> <Curation/DataSource>
ChEMBL

> <Article DOI>
?

> <PMID>
27127993

> <Patent Number>
?

> <Authors>
Kokkonda, S; Deng, X; White, KL; Coteron, JM; Marco, M; de Las Heras, L; White, J; El Mazouni, F; Tomchick, DR; Manjalanagara, K; Rudra, KR; Chen, G; Morizzi, J; Ryan, E; Kaminsky, W; Leroy, D; Mart??nez-Mart??nez, MS; Jimenez-Diaz, MB; Bazaga, SF; Angulo-Barturen, I; Waterson, D; Burrows, JN; Matthews, D; Charman, SA; Phillips, MA; Rathod, PK

> <Link to Ligand in BindingDB>
http://www.bindingdb.org/bind/chemsearch/marvin/MolStructure.jsp?monomerid=50555365; http://www.bindingdb.org/bind/chemsearch/marvin/MolStructure.jsp?monomerid=50555370

> <Link to Ligand-Target Pair in BindingDB>
http://www.bindingdb.org/jsp/dbsearch/PrimarySearch_ki.jsp?energyterm=kJ/mole&tag=r21&monomerid=50555365&enzyme=Dihydroorotate+dehydrogenase&column=ki&startPg=0&Increment=50&submit=Search; http://www.bindingdb.org/jsp/dbsearch/PrimarySearch_ki.jsp?energyterm=kJ/mole&tag=r21&monomerid=50555370&enzyme=Dihydroorotate+dehydrogenase&column=ki&startPg=0&Increment=50&submit=Search

> <PubChem CID>
162653432; 162662201

> <PubChem SID>
461694133; 461694138

$$$$

  Mrv2115 07222212352D          

 22 25  0  0  0  0            999 V2000
   -0.5837   -1.4124    0.0000 C   0  0  0  0  0  0  0  0  0  0  0  0
   -0.1712   -0.6979    0.0000 C   0  0  0  0  0  0  0  0  0  0  0  0
    0.6538   -0.6979    0.0000 C   0  0  0  0  0  0  0  0  0  0  0  0
    1.1387   -0.0305    0.0000 N   0  0  0  0  0  0  0  0  0  0  0  0
    1.9233   -0.2854    0.0000 C   0  0  0  0  0  0  0  0  0  0  0  0
    2.6378    0.1271    0.0000 C   0  0  0  0  0  0  0  0  0  0  0  0
    3.3523   -0.2854    0.0000 C   0  0  0  0  0  0  0  0  0  0  0  0
    3.3523   -1.1104    0.0000 C   0  0  0  0  0  0  0  0  0  0  0  0
    2.6378   -1.5229    0.0000 C   0  0  0  0  0  0  0  0  0  0  0  0
    1.9233   -1.1104    0.0000 C   0  0  0  0  0  0  0  0  0  0  0  0
    1.1387   -1.3654    0.0000 N   0  0  0  0  0  0  0  0  0  0  0  0
    0.8838   -2.1500    0.0000 C   0  0  0  0  0  0  0  0  0  0  0  0
    1.3687   -2.8174    0.0000 C   0  0  0  0  0  0  0  0  0  0  0  0
    0.8838   -3.4849    0.0000 C   0  0  0  0  0  0  0  0  0  0  0  0
    0.0992   -3.2299    0.0000 C   0  0  0  0  0  0  0  0  0  0  0  0
   -0.5683   -3.7149    0.0000 C   0  0  0  0  0  0  0  0  0  0  0  0
   -1.3220   -3.3793    0.0000 O   0  0  0  0  0  0  0  0  0  0  0  0
   -0.4820   -4.5353    0.0000 N   0  0  0  0  0  0  0  0  0  0  0  0
   -1.1495   -5.0203    0.0000 C   0  0  0  0  0  0  0  0  0  0  0  0
   -1.4850   -5.7739    0.0000 C   0  0  0  0  0  0  0  0  0  0  0  0
   -1.9700   -5.1065    0.0000 C   0  0  0  0  0  0  0  0  0  0  0  0
    0.0992   -2.4049    0.0000 S   0  0  0  0  0  0  0  0  0  0  0  0
  1  2  1  0  0  0  0
  2  3  1  0  0  0  0
  3  4  4  0  0  0  0
  4  5  4  0  0  0  0
  5  6  4  0  0  0  0
  6  7  4  0  0  0  0
  7  8  4  0  0  0  0
  8  9  4  0  0  0  0
  9 10  4  0  0  0  0
  5 10  4  0  0  0  0
 10 11  4  0  0  0  0
  3 11  4  0  0  0  0
 11 12  1  0  0  0  0
 12 13  4  0  0  0  0
 13 14  4  0  0  0  0
 14 15  4  0  0  0  0
 15 16  1  0  0  0  0
 16 17  2  0  0  0  0
 16 18  1  0  0  0  0
 18 19  1  0  0  0  0
 19 20  1  0  0  0  0
 20 21  1  0  0  0  0
 19 21  1  0  0  0  0
 15 22  4  0  0  0  0
 12 22  4  0  0  0  0
M  END
> <IC50(uM)>
30.0

> <Outcome>
0.0

> <BindingDB ID>
50924665

> <BindingDB MonomerID>
50379147

> <BindingDB Ligand Name>
CHEMBL2012830::US8703811, 49

> <Curation/DataSource>
ChEMBL

> <Article DOI>
10.1021/ml200143c

> <PMID>
24900364

> <Patent Number>
?

> <Authors>
Skerlj, RT; Bastos, CM; Booker, ML; Kramer, ML; Barker, RH; Celatka, CA; Munoz, B; Sidhu, AB; Cortese, JF; Wittlin, S; Papastogiannidis, P; Angulo-Barturen, I; Jimenez-Diaz, MB; Sybertz, E

> <Link to Ligand in BindingDB>
http://www.bindingdb.org/bind/chemsearch/marvin/MolStructure.jsp?monomerid=50379147

> <Link to Ligand-Target Pair in BindingDB>
http://www.bindingdb.org/jsp/dbsearch/PrimarySearch_ki.jsp?energyterm=kJ/mole&tag=r21&monomerid=50379147&enzyme=Dihydroorotate+dehydrogenase&column=ki&startPg=0&Increment=50&submit=Search

> <PubChem CID>
58284908

> <PubChem SID>
160858230

$$$$

  Mrv2115 07222212352D          

 36 40  0  0  0  0            999 V2000
    0.8838   -2.1500    0.0000 C   0  0  0  0  0  0  0  0  0  0  0  0
    1.1387   -1.3654    0.0000 N   0  0  0  0  0  0  0  0  0  0  0  0
    0.6538   -0.6979    0.0000 N   0  0  0  0  0  0  0  0  0  0  0  0
    1.1387   -0.0305    0.0000 N   0  0  0  0  0  0  0  0  0  0  0  0
    1.9233   -0.2854    0.0000 C   0  0  0  0  0  0  0  0  0  0  0  0
    2.6378    0.1271    0.0000 C   0  0  0  0  0  0  0  0  0  0  0  0
    3.3523   -0.2854    0.0000 C   0  0  0  0  0  0  0  0  0  0  0  0
    4.0668    0.1271    0.0000 C   0  0  0  0  0  0  0  0  0  0  0  0
    4.0668    0.9521    0.0000 C   0  0  0  0  0  0  0  0  0  0  0  0
    3.3523    1.3646    0.0000 F   0  0  0  0  0  0  0  0  0  0  0  0
    4.7812    1.3646    0.0000 C   0  0  0  0  0  0  0  0  0  0  0  0
    4.7812    2.1896    0.0000 F   0  0  0  0  0  0  0  0  0  0  0  0
    5.4957    0.9521    0.0000 C   0  0  0  0  0  0  0  0  0  0  0  0
    6.2102    1.3646    0.0000 C   0  0  0  0  0  0  0  0  0  0  0  0
    6.2102    2.1896    0.0000 C   0  0  0  0  0  0  0  0  0  0  0  0
    6.9246    2.6021    0.0000 C   0  0  0  0  0  0  0  0  0  0  0  0
    7.6391    2.1896    0.0000 C   0  0  0  0  0  0  0  0  0  0  0  0
    7.6391    1.3646    0.0000 C   0  0  0  0  0  0  0  0  0  0  0  0
    8.3536    0.9521    0.0000 C   0  0  0  0  0  0  0  0  0  0  0  0
    8.3536    0.1271    0.0000 N   0  0  0  0  0  0  0  0  0  0  0  0
    9.0681   -0.2854    0.0000 C   0  0  0  0  0  0  0  0  0  0  0  0
    9.0681   -1.1104    0.0000 C   0  0  0  0  0  0  0  0  0  0  0  0
    8.3536   -1.5229    0.0000 O   0  0  0  0  0  0  0  0  0  0  0  0
    7.6391   -1.1104    0.0000 C   0  0  0  0  0  0  0  0  0  0  0  0
    7.6391   -0.2854    0.0000 C   0  0  0  0  0  0  0  0  0  0  0  0
    6.9246    0.9521    0.0000 C   0  0  0  0  0  0  0  0  0  0  0  0
    5.4957    0.1271    0.0000 C   0  0  0  0  0  0  0  0  0  0  0  0
    6.2102   -0.2854    0.0000 F   0  0  0  0  0  0  0  0  0  0  0  0
    4.7812   -0.2854    0.0000 C   0  0  0  0  0  0  0  0  0  0  0  0
    4.7812   -1.1104    0.0000 F   0  0  0  0  0  0  0  0  0  0  0  0
    3.3523   -1.1104    0.0000 C   0  0  0  0  0  0  0  0  0  0  0  0
    2.6378   -1.5229    0.0000 C   0  0  0  0  0  0  0  0  0  0  0  0
    2.6378   -2.3479    0.0000 C   0  0  0  0  0  0  0  0  0  0  0  0
    1.9233   -2.7604    0.0000 O   0  0  0  0  0  0  0  0  0  0  0  0
    3.3523   -2.7604    0.0000 O   0  0  0  0  0  0  0  0  0  0  0  0
    1.9233   -1.1104    0.0000 C   0  0  0  0  0  0  0  0  0  0  0  0
  1  2  1  0  0  0  0
  2  3  4  0  0  0  0
  3  4  4  0  0  0  0
  4  5  4  0  0  0  0
  5  6  4  0  0  0  0
  6  7  4  0  0  0  0
  7  8  1  0  0  0  0
  8  9  4  0  0  0  0
  9 10  1  0  0  0  0
  9 11  4  0  0  0  0
 11 12  1  0  0  0  0
 11 13  4  0  0  0  0
 13 14  1  0  0  0  0
 14 15  4  0  0  0  0
 15 16  4  0  0  0  0
 16 17  4  0  0  0  0
 17 18  4  0  0  0  0
 18 19  1  0  0  0  0
 19 20  1  0  0  0  0
 20 21  1  0  0  0  0
 21 22  1  0  0  0  0
 22 23  1  0  0  0  0
 23 24  1  0  0  0  0
 24 25  1  0  0  0  0
 20 25  1  0  0  0  0
 18 26  4  0  0  0  0
 14 26  4  0  0  0  0
 13 27  4  0  0  0  0
 27 28  1  0  0  0  0
 27 29  4  0  0  0  0
  8 29  4  0  0  0  0
 29 30  1  0  0  0  0
  7 31  4  0  0  0  0
 31 32  4  0  0  0  0
 32 33  1  0  0  0  0
 33 34  2  0  0  0  0
 33 35  1  0  0  0  0
 32 36  4  0  0  0  0
  5 36  4  0  0  0  0
  2 36  4  0  0  0  0
M  END
> <IC50(uM)>
0.55

> <Outcome>
1.0

> <BindingDB ID>
1100170

> <BindingDB MonomerID>
520629

> <BindingDB Ligand Name>
1-methyl-5-(2,3,5,6-tetrafluoro-3'-(morpholinomethyl)-[1,1'-biphenyl]-4-yl)-1H- benzo[d][1,2,3]triazole-7-carboxylic acid;::US11147801, Compound 33

> <Curation/DataSource>
US Patent

> <Article DOI>
?

> <PMID>
?

> <Patent Number>
US11147801

> <Authors>
Nellore, K; Hosahalli, S

> <Link to Ligand in BindingDB>
http://www.bindingdb.org/bind/chemsearch/marvin/MolStructure.jsp?monomerid=520629

> <Link to Ligand-Target Pair in BindingDB>
http://www.bindingdb.org/jsp/dbsearch/PrimarySearch_ki.jsp?energyterm=kJ/mole&tag=r21&monomerid=520629&enzyme=Dihydroorotate+dehydrogenase&column=ki&startPg=0&Increment=50&submit=Search

> <PubChem CID>
?

> <PubChem SID>
?

$$$$

  Mrv2115 07222212352D          

 42 44  0  0  0  0            999 V2000
    2.1434   -3.7125    0.0000 C   0  0  0  0  0  0  0  0  0  0  0  0
    1.4289   -4.1250    0.0000 C   0  0  0  0  0  0  0  0  0  0  0  0
    1.4289   -4.9500    0.0000 N   0  0  0  0  0  0  0  0  0  0  0  0
    0.7615   -5.4349    0.0000 C   0  0  0  0  0  0  0  0  0  0  0  0
   -0.0231   -5.1800    0.0000 C   0  0  0  0  0  0  0  0  0  0  0  0
   -0.1946   -4.3730    0.0000 O   0  0  0  0  0  0  0  0  0  0  0  0
    1.0164   -6.2195    0.0000 N   0  0  0  0  0  0  0  0  0  0  0  0
    1.8414   -6.2195    0.0000 N   0  0  0  0  0  0  0  0  0  0  0  0
    2.3264   -6.8870    0.0000 C   0  0  0  0  0  0  0  0  0  0  0  0
    3.1468   -6.8007    0.0000 C   0  0  0  0  0  0  0  0  0  0  0  0
    3.6318   -7.4682    0.0000 C   0  0  0  0  0  0  0  0  0  0  0  0
    4.4522   -7.3820    0.0000 O   0  0  0  0  0  0  0  0  0  0  0  0
    4.7878   -6.6283    0.0000 C   0  0  0  0  0  0  0  0  0  0  0  0
    4.3029   -5.9608    0.0000 C   0  0  0  0  0  0  0  0  0  0  0  0
    5.6083   -6.5420    0.0000 C   0  0  0  0  0  0  0  0  0  0  0  0
    5.6945   -7.3625    0.0000 F   0  0  0  0  0  0  0  0  0  0  0  0
    5.5221   -5.7216    0.0000 F   0  0  0  0  0  0  0  0  0  0  0  0
    6.4288   -6.4558    0.0000 F   0  0  0  0  0  0  0  0  0  0  0  0
    3.2962   -8.2219    0.0000 C   0  0  0  0  0  0  0  0  0  0  0  0
    3.7811   -8.8893    0.0000 C   0  0  0  0  0  0  0  0  0  0  0  0
    3.4456   -9.6430    0.0000 O   0  0  0  0  0  0  0  0  0  0  0  0
    4.6016   -8.8031    0.0000 N   0  0  0  0  0  0  0  0  0  0  0  0
    5.0865   -9.4705    0.0000 C   0  0  0  0  0  0  0  0  0  0  0  0
    5.9070   -9.3843    0.0000 C   0  0  0  0  0  0  0  0  0  0  0  0
    6.2426   -8.6306    0.0000 F   0  0  0  0  0  0  0  0  0  0  0  0
    6.3919  -10.0517    0.0000 C   0  0  0  0  0  0  0  0  0  0  0  0
    6.0564  -10.8054    0.0000 C   0  0  0  0  0  0  0  0  0  0  0  0
    6.5413  -11.4728    0.0000 O   0  0  0  0  0  0  0  0  0  0  0  0
    6.2057  -12.2265    0.0000 C   0  0  0  0  0  0  0  0  0  0  0  0
    5.3853  -12.3127    0.0000 O   0  0  0  0  0  0  0  0  0  0  0  0
    6.6907  -12.8939    0.0000 C   0  0  0  0  0  0  0  0  0  0  0  0
    7.1756  -13.5614    0.0000 C   0  0  0  0  0  0  0  0  0  0  0  0
    6.0232  -13.3789    0.0000 C   0  0  0  0  0  0  0  0  0  0  0  0
    7.3581  -12.4090    0.0000 C   0  0  0  0  0  0  0  0  0  0  0  0
    5.2359  -10.8916    0.0000 C   0  0  0  0  0  0  0  0  0  0  0  0
    4.7510  -10.2242    0.0000 C   0  0  0  0  0  0  0  0  0  0  0  0
    3.9305  -10.3104    0.0000 Cl  0  0  0  0  0  0  0  0  0  0  0  0
    2.4757   -8.3081    0.0000 C   0  0  0  0  0  0  0  0  0  0  0  0
    1.9908   -7.6407    0.0000 C   0  0  0  0  0  0  0  0  0  0  0  0
    1.1703   -7.7269    0.0000 F   0  0  0  0  0  0  0  0  0  0  0  0
    2.0964   -5.4349    0.0000 C   0  0  0  0  0  0  0  0  0  0  0  0
    2.8810   -5.1800    0.0000 O   0  0  0  0  0  0  0  0  0  0  0  0
  1  2  1  0  0  0  0
  2  3  1  0  0  0  0
  3  4  4  0  0  0  0
  4  5  1  0  0  0  0
  5  6  1  0  0  0  0
  4  7  4  0  0  0  0
  7  8  4  0  0  0  0
  8  9  1  0  0  0  0
  9 10  4  0  0  0  0
 10 11  4  0  0  0  0
 11 12  1  0  0  0  0
 12 13  1  0  0  0  0
 13 14  1  0  0  0  0
 13 15  1  0  0  0  0
 15 16  1  0  0  0  0
 15 17  1  0  0  0  0
 15 18  1  0  0  0  0
 11 19  4  0  0  0  0
 19 20  1  0  0  0  0
 20 21  2  0  0  0  0
 20 22  1  0  0  0  0
 22 23  1  0  0  0  0
 23 24  4  0  0  0  0
 24 25  1  0  0  0  0
 24 26  4  0  0  0  0
 26 27  4  0  0  0  0
 27 28  1  0  0  0  0
 28 29  1  0  0  0  0
 29 30  2  0  0  0  0
 29 31  1  0  0  0  0
 31 32  1  0  0  0  0
 31 33  1  0  0  0  0
 31 34  1  0  0  0  0
 27 35  4  0  0  0  0
 35 36  4  0  0  0  0
 23 36  4  0  0  0  0
 36 37  1  0  0  0  0
 19 38  4  0  0  0  0
 38 39  4  0  0  0  0
  9 39  4  0  0  0  0
 39 40  1  0  0  0  0
  8 41  4  0  0  0  0
  3 41  4  0  0  0  0
 41 42  2  0  0  0  0
M  END
> <IC50(uM)>
0.024

> <Outcome>
1.0

> <BindingDB ID>
972653; 1098807

> <BindingDB MonomerID>
470531

> <BindingDB Ligand Name>
3-chloro-4-(4-[4-ethyl-3-(hydroxymethyl)-5-oxo-4,5-dihydro-1H-1,2,4-triazol-1-yl]-5-fluoro-2-{[(2S)-1,1,1-trifluoropropan-2-yl]oxy}benzamido)-5-fluorophenyl 2,2-dimethylpropanoate::US10815215, Example 191; 3-chloro-4-(4-[4-ethyl-3-(hydroxymethyl)-5-oxo-4,5-dihydro-1H-1,2,4-triazol-1-yl]-5-fluoro-2-{[(2S)-1,1,1-trifluoropropan-2-yl]oxy}benzamido)-5-fluorophenyl 2,2-dimethylpropanoate::US10815215, Example 191::US11130745, Example 191

> <Curation/DataSource>
US Patent

> <Article DOI>
?

> <PMID>
?

> <Patent Number>
US10815215; US11130745

> <Authors>
Gradl, SN; Nguyen, D; Eis, K; Gunther, J; Stellfeld, T; Janzer, A; Christian, S; Muller, T; Sheikh, SE; Zhou, HJ; Zhao, C; Sykes, DB; Ferrara, SJ; Liu, K; Krober, M; Merz, C; Niehues, M; Schafer, M; Zimmermann, K; Nising, CF; Gradl, SN; Nguyen, D; Eis, K; Gunther, J; Stellfeld, T; Janzer, A; Christian, S; Muller, T; Sheikh, SE; Sykes, DB; Ferrara, SJ; Krober, M; Merz, C; Niehues, M; Schafer, M; Zimmermann, K; Nising, CF

> <Link to Ligand in BindingDB>
http://www.bindingdb.org/bind/chemsearch/marvin/MolStructure.jsp?monomerid=470531

> <Link to Ligand-Target Pair in BindingDB>
http://www.bindingdb.org/jsp/dbsearch/PrimarySearch_ki.jsp?energyterm=kJ/mole&tag=r21&monomerid=470531&enzyme=Dihydroorotate+dehydrogenase&column=ki&startPg=0&Increment=50&submit=Search

> <PubChem CID>
134470312

> <PubChem SID>
441609707

$$$$

  Mrv2115 07222212352D          

 23 26  0  0  0  0            999 V2000
   -0.1712   -0.6979    0.0000 C   0  0  0  0  0  0  0  0  0  0  0  0
    0.6538   -0.6979    0.0000 C   0  0  0  0  0  0  0  0  0  0  0  0
    1.1387   -0.0305    0.0000 N   0  0  0  0  0  0  0  0  0  0  0  0
    1.9233   -0.2854    0.0000 C   0  0  0  0  0  0  0  0  0  0  0  0
    2.6378    0.1271    0.0000 C   0  0  0  0  0  0  0  0  0  0  0  0
    2.6378    0.9521    0.0000 Cl  0  0  0  0  0  0  0  0  0  0  0  0
    3.3523   -0.2854    0.0000 C   0  0  0  0  0  0  0  0  0  0  0  0
    3.3523   -1.1104    0.0000 C   0  0  0  0  0  0  0  0  0  0  0  0
    4.0668   -1.5229    0.0000 F   0  0  0  0  0  0  0  0  0  0  0  0
    2.6378   -1.5229    0.0000 C   0  0  0  0  0  0  0  0  0  0  0  0
    1.9233   -1.1104    0.0000 C   0  0  0  0  0  0  0  0  0  0  0  0
    1.1387   -1.3654    0.0000 N   0  0  0  0  0  0  0  0  0  0  0  0
    0.8838   -2.1500    0.0000 C   0  0  0  0  0  0  0  0  0  0  0  0
    1.3687   -2.8174    0.0000 C   0  0  0  0  0  0  0  0  0  0  0  0
    0.8838   -3.4849    0.0000 C   0  0  0  0  0  0  0  0  0  0  0  0
    0.0992   -3.2299    0.0000 C   0  0  0  0  0  0  0  0  0  0  0  0
   -0.5683   -3.7149    0.0000 C   0  0  0  0  0  0  0  0  0  0  0  0
   -1.3220   -3.3793    0.0000 O   0  0  0  0  0  0  0  0  0  0  0  0
   -0.4820   -4.5353    0.0000 N   0  0  0  0  0  0  0  0  0  0  0  0
   -1.1495   -5.0203    0.0000 C   0  0  0  0  0  0  0  0  0  0  0  0
   -1.4850   -5.7739    0.0000 C   0  0  0  0  0  0  0  0  0  0  0  0
   -1.9700   -5.1065    0.0000 C   0  0  0  0  0  0  0  0  0  0  0  0
    0.0992   -2.4049    0.0000 S   0  0  0  0  0  0  0  0  0  0  0  0
  1  2  1  0  0  0  0
  2  3  4  0  0  0  0
  3  4  4  0  0  0  0
  4  5  4  0  0  0  0
  5  6  1  0  0  0  0
  5  7  4  0  0  0  0
  7  8  4  0  0  0  0
  8  9  1  0  0  0  0
  8 10  4  0  0  0  0
 10 11  4  0  0  0  0
  4 11  4  0  0  0  0
 11 12  4  0  0  0  0
  2 12  4  0  0  0  0
 12 13  1  0  0  0  0
 13 14  4  0  0  0  0
 14 15  4  0  0  0  0
 15 16  4  0  0  0  0
 16 17  1  0  0  0  0
 17 18  2  0  0  0  0
 17 19  1  0  0  0  0
 19 20  1  0  0  0  0
 20 21  1  0  0  0  0
 21 22  1  0  0  0  0
 20 22  1  0  0  0  0
 16 23  4  0  0  0  0
 13 23  4  0  0  0  0
M  END
> <IC50(uM)>
30.0

> <Outcome>
0.0

> <BindingDB ID>
50924670

> <BindingDB MonomerID>
50379151

> <BindingDB Ligand Name>
CHEMBL2012962

> <Curation/DataSource>
ChEMBL

> <Article DOI>
10.1021/ml200143c

> <PMID>
24900364

> <Patent Number>
?

> <Authors>
Skerlj, RT; Bastos, CM; Booker, ML; Kramer, ML; Barker, RH; Celatka, CA; Munoz, B; Sidhu, AB; Cortese, JF; Wittlin, S; Papastogiannidis, P; Angulo-Barturen, I; Jimenez-Diaz, MB; Sybertz, E

> <Link to Ligand in BindingDB>
http://www.bindingdb.org/bind/chemsearch/marvin/MolStructure.jsp?monomerid=50379151

> <Link to Ligand-Target Pair in BindingDB>
http://www.bindingdb.org/jsp/dbsearch/PrimarySearch_ki.jsp?energyterm=kJ/mole&tag=r21&monomerid=50379151&enzyme=Dihydroorotate+dehydrogenase&column=ki&startPg=0&Increment=50&submit=Search

> <PubChem CID>
70685312

> <PubChem SID>
160858234

$$$$

  Mrv2115 07222212352D          

 19 21  0  0  0  0            999 V2000
   -2.6543    4.1914    0.0000 N   0  0  0  0  0  0  0  0  0  0  0  0
   -1.8696    4.4464    0.0000 C   0  0  0  0  0  0  0  0  0  0  0  0
   -1.0850    4.7013    0.0000 C   0  0  0  0  0  0  0  0  0  0  0  0
   -0.9135    5.5083    0.0000 C   0  0  0  0  0  0  0  0  0  0  0  0
   -0.1289    5.7632    0.0000 C   0  0  0  0  0  0  0  0  0  0  0  0
    0.4842    5.2112    0.0000 C   0  0  0  0  0  0  0  0  0  0  0  0
    1.2688    5.4661    0.0000 N   0  0  0  0  0  0  0  0  0  0  0  0
    1.8819    4.9141    0.0000 C   0  0  0  0  0  0  0  0  0  0  0  0
    1.7104    4.1071    0.0000 S   0  0  0  0  0  0  0  0  0  0  0  0
    2.6666    5.1690    0.0000 C   0  0  0  0  0  0  0  0  0  0  0  0
    2.9215    5.9537    0.0000 C   0  0  0  0  0  0  0  0  0  0  0  0
    3.7465    5.9537    0.0000 N   0  0  0  0  0  0  0  0  0  0  0  0
    4.0014    5.1690    0.0000 O   0  0  0  0  0  0  0  0  0  0  0  0
    3.3340    4.6841    0.0000 C   0  0  0  0  0  0  0  0  0  0  0  0
    3.3340    3.8591    0.0000 C   0  0  0  0  0  0  0  0  0  0  0  0
    3.7465    3.1446    0.0000 C   0  0  0  0  0  0  0  0  0  0  0  0
    2.9215    3.1446    0.0000 C   0  0  0  0  0  0  0  0  0  0  0  0
    0.3127    4.4042    0.0000 C   0  0  0  0  0  0  0  0  0  0  0  0
   -0.4719    4.1493    0.0000 C   0  0  0  0  0  0  0  0  0  0  0  0
  1  2  3  0  0  0  0
  2  3  1  0  0  0  0
  3  4  4  0  0  0  0
  4  5  4  0  0  0  0
  5  6  4  0  0  0  0
  6  7  1  0  0  0  0
  7  8  1  0  0  0  0
  8  9  2  0  0  0  0
  8 10  1  0  0  0  0
 10 11  4  0  0  0  0
 11 12  4  0  0  0  0
 12 13  4  0  0  0  0
 13 14  4  0  0  0  0
 10 14  4  0  0  0  0
 14 15  1  0  0  0  0
 15 16  1  0  0  0  0
 16 17  1  0  0  0  0
 15 17  1  0  0  0  0
  6 18  4  0  0  0  0
 18 19  4  0  0  0  0
  3 19  4  0  0  0  0
M  END
> <IC50(uM)>
9.3

> <Outcome>
0.0

> <BindingDB ID>
50123306

> <BindingDB MonomerID>
50071398

> <BindingDB Ligand Name>
5-Cyclopropyl-isoxazole-4-carbothioic acid (4-cyano-phenyl)-amide::CHEMBL305215

> <Curation/DataSource>
ChEMBL

> <Article DOI>
10.1016/s0960-894x(98)00365-5

> <PMID>
9873513

> <Patent Number>
?

> <Authors>
Albert, R; Knecht, H; Andersen, E; Hungerford, V; Schreier, MH; Papageorgiou, C

> <Link to Ligand in BindingDB>
http://www.bindingdb.org/bind/chemsearch/marvin/MolStructure.jsp?monomerid=50071398

> <Link to Ligand-Target Pair in BindingDB>
http://www.bindingdb.org/jsp/dbsearch/PrimarySearch_ki.jsp?energyterm=kJ/mole&tag=r21&monomerid=50071398&enzyme=Dihydroorotate+dehydrogenase&column=ki&startPg=0&Increment=50&submit=Search

> <PubChem CID>
44310640

> <PubChem SID>
103965152

$$$$

  Mrv2115 07222212352D          

 26 29  0  0  0  0            999 V2000
    5.6833    4.9580    0.0000 C   0  0  0  0  0  0  0  0  0  0  0  0
    6.2964    4.4059    0.0000 C   0  0  0  0  0  0  0  0  0  0  0  0
    7.1034    4.5775    0.0000 C   0  0  0  0  0  0  0  0  0  0  0  0
    7.5159    3.8630    0.0000 C   0  0  0  0  0  0  0  0  0  0  0  0
    6.9638    3.2499    0.0000 C   0  0  0  0  0  0  0  0  0  0  0  0
    7.1354    2.4429    0.0000 C   0  0  0  0  0  0  0  0  0  0  0  0
    6.2102    3.5854    0.0000 N   0  0  0  0  0  0  0  0  0  0  0  0
    5.4957    3.1729    0.0000 C   0  0  0  0  0  0  0  0  0  0  0  0
    5.4957    2.3479    0.0000 C   0  0  0  0  0  0  0  0  0  0  0  0
    4.7812    1.9354    0.0000 C   0  0  0  0  0  0  0  0  0  0  0  0
    4.0668    2.3479    0.0000 C   0  0  0  0  0  0  0  0  0  0  0  0
    3.3523    1.9354    0.0000 C   0  0  0  0  0  0  0  0  0  0  0  0
    3.3523    1.1104    0.0000 C   0  0  0  0  0  0  0  0  0  0  0  0
    2.6378    0.6979    0.0000 C   0  0  0  0  0  0  0  0  0  0  0  0
    2.6378   -0.1271    0.0000 C   0  0  0  0  0  0  0  0  0  0  0  0
    1.9233   -0.5396    0.0000 O   0  0  0  0  0  0  0  0  0  0  0  0
    3.3523   -0.5396    0.0000 O   0  0  0  0  0  0  0  0  0  0  0  0
    1.9233    1.1104    0.0000 C   0  0  0  0  0  0  0  0  0  0  0  0
    1.1387    0.8555    0.0000 N   0  0  0  0  0  0  0  0  0  0  0  0
    0.6538    1.5229    0.0000 N   0  0  0  0  0  0  0  0  0  0  0  0
   -0.1712    1.5229    0.0000 C   0  0  0  0  0  0  0  0  0  0  0  0
    1.1387    2.1904    0.0000 N   0  0  0  0  0  0  0  0  0  0  0  0
    1.9233    1.9354    0.0000 C   0  0  0  0  0  0  0  0  0  0  0  0
    2.6378    2.3479    0.0000 C   0  0  0  0  0  0  0  0  0  0  0  0
    4.0668    3.1729    0.0000 C   0  0  0  0  0  0  0  0  0  0  0  0
    4.7812    3.5854    0.0000 C   0  0  0  0  0  0  0  0  0  0  0  0
  1  2  1  0  0  0  0
  2  3  4  0  0  0  0
  3  4  4  0  0  0  0
  4  5  4  0  0  0  0
  5  6  1  0  0  0  0
  5  7  4  0  0  0  0
  2  7  4  0  0  0  0
  7  8  1  0  0  0  0
  8  9  4  0  0  0  0
  9 10  4  0  0  0  0
 10 11  4  0  0  0  0
 11 12  1  0  0  0  0
 12 13  4  0  0  0  0
 13 14  4  0  0  0  0
 14 15  1  0  0  0  0
 15 16  2  0  0  0  0
 15 17  1  0  0  0  0
 14 18  4  0  0  0  0
 18 19  4  0  0  0  0
 19 20  4  0  0  0  0
 20 21  1  0  0  0  0
 20 22  4  0  0  0  0
 22 23  4  0  0  0  0
 18 23  4  0  0  0  0
 23 24  4  0  0  0  0
 12 24  4  0  0  0  0
 11 25  4  0  0  0  0
 25 26  4  0  0  0  0
  8 26  4  0  0  0  0
M  END
> <IC50(uM)>
0.55

> <Outcome>
1.0

> <BindingDB ID>
1100167

> <BindingDB MonomerID>
520626

> <BindingDB Ligand Name>
6-(4-(2,5-dimethyl-1H-pyrrol-1-yl)phenyl)-2-methyl-2H-benzo[d][1,2,3]triazole- 4-carboxylic acid;::US11147801, Compound 13

> <Curation/DataSource>
US Patent

> <Article DOI>
?

> <PMID>
?

> <Patent Number>
US11147801

> <Authors>
Nellore, K; Hosahalli, S

> <Link to Ligand in BindingDB>
http://www.bindingdb.org/bind/chemsearch/marvin/MolStructure.jsp?monomerid=520626

> <Link to Ligand-Target Pair in BindingDB>
http://www.bindingdb.org/jsp/dbsearch/PrimarySearch_ki.jsp?energyterm=kJ/mole&tag=r21&monomerid=520626&enzyme=Dihydroorotate+dehydrogenase&column=ki&startPg=0&Increment=50&submit=Search

> <PubChem CID>
?

> <PubChem SID>
?

$$$$

  Mrv2115 07222212352D          

 24 26  0  0  0  0            999 V2000
    2.1434   -2.8875    0.0000 C   0  0  0  0  0  0  0  0  0  0  0  0
    2.1434   -3.7125    0.0000 C   0  0  0  0  0  0  0  0  0  0  0  0
    1.4289   -4.1250    0.0000 C   0  0  0  0  0  0  0  0  0  0  0  0
    1.4289   -4.9500    0.0000 C   0  0  0  0  0  0  0  0  0  0  0  0
    2.1434   -5.3625    0.0000 C   0  0  0  0  0  0  0  0  0  0  0  0
    2.1434   -6.1875    0.0000 N   0  0  0  0  0  0  0  0  0  0  0  0
    1.4289   -6.6000    0.0000 C   0  0  0  0  0  0  0  0  0  0  0  0
    1.4289   -7.4250    0.0000 C   0  0  0  0  0  0  0  0  0  0  0  0
    0.7145   -7.8375    0.0000 C   0  0  0  0  0  0  0  0  0  0  0  0
    0.0000   -7.4250    0.0000 C   0  0  0  0  0  0  0  0  0  0  0  0
   -0.7145   -7.8375    0.0000 C   0  0  0  0  0  0  0  0  0  0  0  0
   -0.7145   -8.6625    0.0000 C   0  0  0  0  0  0  0  0  0  0  0  0
   -1.4289   -9.0750    0.0000 C   0  0  0  0  0  0  0  0  0  0  0  0
   -2.1434   -8.6625    0.0000 N   0  0  0  0  0  0  0  0  0  0  0  0
   -2.1434   -7.8375    0.0000 C   0  0  0  0  0  0  0  0  0  0  0  0
   -1.4289   -7.4250    0.0000 C   0  0  0  0  0  0  0  0  0  0  0  0
   -1.4289   -6.6000    0.0000 Cl  0  0  0  0  0  0  0  0  0  0  0  0
    0.0000   -6.6000    0.0000 N   0  0  0  0  0  0  0  0  0  0  0  0
    0.7145   -6.1875    0.0000 C   0  0  0  0  0  0  0  0  0  0  0  0
    2.8579   -4.9500    0.0000 C   0  0  0  0  0  0  0  0  0  0  0  0
    3.5724   -5.3625    0.0000 C   0  0  0  0  0  0  0  0  0  0  0  0
    4.2868   -4.9500    0.0000 O   0  0  0  0  0  0  0  0  0  0  0  0
    3.5724   -6.1875    0.0000 O   0  0  0  0  0  0  0  0  0  0  0  0
    2.8579   -4.1250    0.0000 C   0  0  0  0  0  0  0  0  0  0  0  0
  1  2  1  0  0  0  0
  2  3  4  0  0  0  0
  3  4  4  0  0  0  0
  4  5  4  0  0  0  0
  5  6  1  0  0  0  0
  6  7  1  0  0  0  0
  7  8  4  0  0  0  0
  8  9  4  0  0  0  0
  9 10  4  0  0  0  0
 10 11  1  0  0  0  0
 11 12  4  0  0  0  0
 12 13  4  0  0  0  0
 13 14  4  0  0  0  0
 14 15  4  0  0  0  0
 15 16  4  0  0  0  0
 11 16  4  0  0  0  0
 16 17  1  0  0  0  0
 10 18  4  0  0  0  0
 18 19  4  0  0  0  0
  7 19  4  0  0  0  0
  5 20  4  0  0  0  0
 20 21  1  0  0  0  0
 21 22  2  0  0  0  0
 21 23  1  0  0  0  0
 20 24  4  0  0  0  0
  2 24  4  0  0  0  0
M  END
> <IC50(uM)>
0.109

> <Outcome>
1.0

> <BindingDB ID>
219989

> <BindingDB MonomerID>
102459

> <BindingDB Ligand Name>
US8536165, 34

> <Curation/DataSource>
US Patent

> <Article DOI>
?

> <PMID>
?

> <Patent Number>
US8536165

> <Authors>
Castro Palomino Laria, JC; Terricabras Belart, E; Erra Sola, M; Navarro Romero, E; Fonquerna Pou, S; Cardus Figueras, A; Lozoya Toribio, ME

> <Link to Ligand in BindingDB>
http://www.bindingdb.org/bind/chemsearch/marvin/MolStructure.jsp?monomerid=102459

> <Link to Ligand-Target Pair in BindingDB>
http://www.bindingdb.org/jsp/dbsearch/PrimarySearch_ki.jsp?energyterm=kJ/mole&tag=r21&monomerid=102459&enzyme=Dihydroorotate+dehydrogenase&column=ki&startPg=0&Increment=50&submit=Search

> <PubChem CID>
66766326

> <PubChem SID>
172097750

$$$$

  Mrv2115 07222212352D          

 25 27  0  0  0  0            999 V2000
    2.1434   -2.8875    0.0000 C   0  0  0  0  0  0  0  0  0  0  0  0
    2.1434   -3.7125    0.0000 C   0  0  0  0  0  0  0  0  0  0  0  0
    1.4289   -4.1250    0.0000 C   0  0  0  0  0  0  0  0  0  0  0  0
    1.4289   -4.9500    0.0000 C   0  0  0  0  0  0  0  0  0  0  0  0
    2.1434   -5.3625    0.0000 C   0  0  0  0  0  0  0  0  0  0  0  0
    2.1434   -6.1875    0.0000 N   0  0  0  0  0  0  0  0  0  0  0  0
    1.4289   -6.6000    0.0000 C   0  0  0  0  0  0  0  0  0  0  0  0
    1.4289   -7.4250    0.0000 C   0  0  0  0  0  0  0  0  0  0  0  0
    0.7145   -7.8375    0.0000 N   0  0  0  0  0  0  0  0  0  0  0  0
    0.0000   -7.4250    0.0000 C   0  0  0  0  0  0  0  0  0  0  0  0
   -0.7145   -7.8375    0.0000 C   0  0  0  0  0  0  0  0  0  0  0  0
   -0.7145   -8.6625    0.0000 C   0  0  0  0  0  0  0  0  0  0  0  0
   -1.4289   -9.0750    0.0000 C   0  0  0  0  0  0  0  0  0  0  0  0
   -2.1434   -8.6625    0.0000 N   0  0  0  0  0  0  0  0  0  0  0  0
   -2.1434   -7.8375    0.0000 C   0  0  0  0  0  0  0  0  0  0  0  0
   -1.4289   -7.4250    0.0000 C   0  0  0  0  0  0  0  0  0  0  0  0
   -1.4289   -6.6000    0.0000 F   0  0  0  0  0  0  0  0  0  0  0  0
    0.0000   -6.6000    0.0000 C   0  0  0  0  0  0  0  0  0  0  0  0
   -0.7145   -6.1875    0.0000 C   0  0  0  0  0  0  0  0  0  0  0  0
    0.7145   -6.1875    0.0000 C   0  0  0  0  0  0  0  0  0  0  0  0
    2.8579   -4.9500    0.0000 C   0  0  0  0  0  0  0  0  0  0  0  0
    3.5724   -5.3625    0.0000 C   0  0  0  0  0  0  0  0  0  0  0  0
    4.2868   -4.9500    0.0000 O   0  0  0  0  0  0  0  0  0  0  0  0
    3.5724   -6.1875    0.0000 O   0  0  0  0  0  0  0  0  0  0  0  0
    2.8579   -4.1250    0.0000 C   0  0  0  0  0  0  0  0  0  0  0  0
  1  2  1  0  0  0  0
  2  3  4  0  0  0  0
  3  4  4  0  0  0  0
  4  5  4  0  0  0  0
  5  6  1  0  0  0  0
  6  7  1  0  0  0  0
  7  8  4  0  0  0  0
  8  9  4  0  0  0  0
  9 10  4  0  0  0  0
 10 11  1  0  0  0  0
 11 12  4  0  0  0  0
 12 13  4  0  0  0  0
 13 14  4  0  0  0  0
 14 15  4  0  0  0  0
 15 16  4  0  0  0  0
 11 16  4  0  0  0  0
 16 17  1  0  0  0  0
 10 18  4  0  0  0  0
 18 19  1  0  0  0  0
 18 20  4  0  0  0  0
  7 20  4  0  0  0  0
  5 21  4  0  0  0  0
 21 22  1  0  0  0  0
 22 23  2  0  0  0  0
 22 24  1  0  0  0  0
 21 25  4  0  0  0  0
  2 25  4  0  0  0  0
M  END
> <IC50(uM)>
0.037

> <Outcome>
1.0

> <BindingDB ID>
220011

> <BindingDB MonomerID>
102481

> <BindingDB Ligand Name>
US8536165, 79

> <Curation/DataSource>
US Patent

> <Article DOI>
?

> <PMID>
?

> <Patent Number>
US8536165

> <Authors>
Castro Palomino Laria, JC; Terricabras Belart, E; Erra Sola, M; Navarro Romero, E; Fonquerna Pou, S; Cardus Figueras, A; Lozoya Toribio, ME

> <Link to Ligand in BindingDB>
http://www.bindingdb.org/bind/chemsearch/marvin/MolStructure.jsp?monomerid=102481

> <Link to Ligand-Target Pair in BindingDB>
http://www.bindingdb.org/jsp/dbsearch/PrimarySearch_ki.jsp?energyterm=kJ/mole&tag=r21&monomerid=102481&enzyme=Dihydroorotate+dehydrogenase&column=ki&startPg=0&Increment=50&submit=Search

> <PubChem CID>
66695115

> <PubChem SID>
172097772

$$$$

  Mrv2115 07222212352D          

 28 30  0  0  0  0            999 V2000
    7.8592    1.2375    0.0000 O   0  0  0  0  0  0  0  0  0  0  0  0
    7.8592    0.4125    0.0000 C   0  0  0  0  0  0  0  0  0  0  0  0
    7.1447    0.0000    0.0000 C   0  0  0  0  0  0  0  0  0  0  0  0
    6.4302    0.4125    0.0000 N   0  0  0  0  0  0  0  0  0  0  0  0
    5.7158    0.0000    0.0000 C   0  0  0  0  0  0  0  0  0  0  0  0
    5.7158   -0.8250    0.0000 O   0  0  0  0  0  0  0  0  0  0  0  0
    5.0013    0.4125    0.0000 C   0  0  0  0  0  0  0  0  0  0  0  0
    4.2868    0.0000    0.0000 C   0  0  0  0  0  0  0  0  0  0  0  0
    3.5724    0.4125    0.0000 C   0  0  0  0  0  0  0  0  0  0  0  0
    3.5724    1.2375    0.0000 C   0  0  0  0  0  0  0  0  0  0  0  0
    2.8579    1.6500    0.0000 O   0  0  0  0  0  0  0  0  0  0  0  0
    2.8579    2.4750    0.0000 C   0  0  0  0  0  0  0  0  0  0  0  0
    2.8579    3.3000    0.0000 F   0  0  0  0  0  0  0  0  0  0  0  0
    2.0329    2.4750    0.0000 F   0  0  0  0  0  0  0  0  0  0  0  0
    3.6829    2.4750    0.0000 F   0  0  0  0  0  0  0  0  0  0  0  0
    4.2868    1.6500    0.0000 C   0  0  0  0  0  0  0  0  0  0  0  0
    5.0013    1.2375    0.0000 C   0  0  0  0  0  0  0  0  0  0  0  0
    8.5737    0.0000    0.0000 N   0  0  0  0  0  0  0  0  0  0  0  0
    9.2881    0.4125    0.0000 C   0  0  0  0  0  0  0  0  0  0  0  0
    9.2881    1.2375    0.0000 C   0  0  0  0  0  0  0  0  0  0  0  0
   10.0026    1.6500    0.0000 C   0  0  0  0  0  0  0  0  0  0  0  0
   10.7171    1.2375    0.0000 C   0  0  0  0  0  0  0  0  0  0  0  0
   10.7171    0.4125    0.0000 C   0  0  0  0  0  0  0  0  0  0  0  0
   11.4315    0.0000    0.0000 C   0  0  0  0  0  0  0  0  0  0  0  0
   11.4315   -0.8250    0.0000 C   0  0  0  0  0  0  0  0  0  0  0  0
   10.7171   -1.2375    0.0000 C   0  0  0  0  0  0  0  0  0  0  0  0
   10.0026   -0.8250    0.0000 C   0  0  0  0  0  0  0  0  0  0  0  0
   10.0026    0.0000    0.0000 C   0  0  0  0  0  0  0  0  0  0  0  0
  1  2  2  0  0  0  0
  2  3  1  0  0  0  0
  3  4  1  0  0  0  0
  4  5  1  0  0  0  0
  5  6  2  0  0  0  0
  5  7  1  0  0  0  0
  7  8  4  0  0  0  0
  8  9  4  0  0  0  0
  9 10  4  0  0  0  0
 10 11  1  0  0  0  0
 11 12  1  0  0  0  0
 12 13  1  0  0  0  0
 12 14  1  0  0  0  0
 12 15  1  0  0  0  0
 10 16  4  0  0  0  0
 16 17  4  0  0  0  0
  7 17  4  0  0  0  0
  2 18  1  0  0  0  0
 18 19  1  0  0  0  0
 19 20  1  0  0  0  0
 20 21  1  0  0  0  0
 21 22  1  0  0  0  0
 22 23  1  0  0  0  0
 23 24  4  0  0  0  0
 24 25  4  0  0  0  0
 25 26  4  0  0  0  0
 26 27  4  0  0  0  0
 27 28  4  0  0  0  0
 23 28  4  0  0  0  0
 19 28  1  0  0  0  0
M  END
> <IC50(uM)>
20.0

> <Outcome>
0.0

> <BindingDB ID>
50527790

> <BindingDB MonomerID>
50201634

> <BindingDB Ligand Name>
CHEMBL3971302

> <Curation/DataSource>
ChEMBL

> <Article DOI>
10.1021/acsmedchemlett.6b00316

> <PMID>
27994748

> <Patent Number>
?

> <Authors>
Lewis, TA; Sykes, DB; Law, JM; Mu??oz, B; Rustiguel, JK; Nonato, MC; Scadden, DT; Schreiber, SL

> <Link to Ligand in BindingDB>
http://www.bindingdb.org/bind/chemsearch/marvin/MolStructure.jsp?monomerid=50201634

> <Link to Ligand-Target Pair in BindingDB>
http://www.bindingdb.org/jsp/dbsearch/PrimarySearch_ki.jsp?energyterm=kJ/mole&tag=r21&monomerid=50201634&enzyme=Dihydroorotate+dehydrogenase&column=ki&startPg=0&Increment=50&submit=Search

> <PubChem CID>
71768303

> <PubChem SID>
375979422

$$$$

  Mrv2115 07222212352D          

 25 28  0  0  0  0            999 V2000
    4.0668    2.3479    0.0000 C   0  0  0  0  0  0  0  0  0  0  0  0
    3.3523    1.9354    0.0000 C   0  0  0  0  0  0  0  0  0  0  0  0
    3.3523    1.1104    0.0000 C   0  0  0  0  0  0  0  0  0  0  0  0
    2.6378    0.6979    0.0000 C   0  0  0  0  0  0  0  0  0  0  0  0
    2.6378   -0.1271    0.0000 C   0  0  0  0  0  0  0  0  0  0  0  0
    1.9233   -0.5396    0.0000 O   0  0  0  0  0  0  0  0  0  0  0  0
    3.3523   -0.5396    0.0000 O   0  0  0  0  0  0  0  0  0  0  0  0
    1.9233    1.1104    0.0000 C   0  0  0  0  0  0  0  0  0  0  0  0
    1.1387    0.8555    0.0000 N   0  0  0  0  0  0  0  0  0  0  0  0
    0.6538    1.5229    0.0000 C   0  0  0  0  0  0  0  0  0  0  0  0
   -0.1712    1.5229    0.0000 C   0  0  0  0  0  0  0  0  0  0  0  0
   -0.5837    0.8085    0.0000 C   0  0  0  0  0  0  0  0  0  0  0  0
   -1.4087    0.8085    0.0000 C   0  0  0  0  0  0  0  0  0  0  0  0
   -1.8212    1.5229    0.0000 C   0  0  0  0  0  0  0  0  0  0  0  0
   -2.6462    1.5229    0.0000 C   0  0  0  0  0  0  0  0  0  0  0  0
   -3.0587    0.8085    0.0000 C   0  0  0  0  0  0  0  0  0  0  0  0
   -3.8837    0.8085    0.0000 C   0  0  0  0  0  0  0  0  0  0  0  0
   -4.2962    1.5229    0.0000 C   0  0  0  0  0  0  0  0  0  0  0  0
   -3.8837    2.2374    0.0000 C   0  0  0  0  0  0  0  0  0  0  0  0
   -3.0587    2.2374    0.0000 C   0  0  0  0  0  0  0  0  0  0  0  0
   -1.4087    2.2374    0.0000 N   0  0  0  0  0  0  0  0  0  0  0  0
   -0.5837    2.2374    0.0000 C   0  0  0  0  0  0  0  0  0  0  0  0
    1.1387    2.1904    0.0000 N   0  0  0  0  0  0  0  0  0  0  0  0
    1.9233    1.9354    0.0000 C   0  0  0  0  0  0  0  0  0  0  0  0
    2.6378    2.3479    0.0000 C   0  0  0  0  0  0  0  0  0  0  0  0
  1  2  1  0  0  0  0
  2  3  4  0  0  0  0
  3  4  4  0  0  0  0
  4  5  1  0  0  0  0
  5  6  2  0  0  0  0
  5  7  1  0  0  0  0
  4  8  4  0  0  0  0
  8  9  4  0  0  0  0
  9 10  4  0  0  0  0
 10 11  1  0  0  0  0
 11 12  4  0  0  0  0
 12 13  4  0  0  0  0
 13 14  4  0  0  0  0
 14 15  1  0  0  0  0
 15 16  4  0  0  0  0
 16 17  4  0  0  0  0
 17 18  4  0  0  0  0
 18 19  4  0  0  0  0
 19 20  4  0  0  0  0
 15 20  4  0  0  0  0
 14 21  4  0  0  0  0
 21 22  4  0  0  0  0
 11 22  4  0  0  0  0
 10 23  4  0  0  0  0
 23 24  4  0  0  0  0
  8 24  4  0  0  0  0
 24 25  4  0  0  0  0
  2 25  4  0  0  0  0
M  STY  1   1 DAT
M  SAL   1  1   9
M  SDT   1 MRV_IMPLICIT_H                                        
M  SDD   1     0.5304   -0.4125    DR    ALL  0       0  
M  SED   1 IMPL_H1
M  END
> <IC50(uM)>
3.82

> <Outcome>
0.0

> <BindingDB ID>
297782

> <BindingDB MonomerID>
155438

> <BindingDB Ligand Name>
US9006454, I75

> <Curation/DataSource>
US Patent

> <Article DOI>
?

> <PMID>
?

> <Patent Number>
US9006454

> <Authors>
Thunuguntla, SS; Subramanya, H; Kunnam, SR; Sanivaru Vijay, SR; Bingi, C; Kusanur, R; Schwarz, M; Arlt, M

> <Link to Ligand in BindingDB>
http://www.bindingdb.org/bind/chemsearch/marvin/MolStructure.jsp?monomerid=155438

> <Link to Ligand-Target Pair in BindingDB>
http://www.bindingdb.org/jsp/dbsearch/PrimarySearch_ki.jsp?energyterm=kJ/mole&tag=r21&monomerid=155438&enzyme=Dihydroorotate+dehydrogenase&column=ki&startPg=0&Increment=50&submit=Search

> <PubChem CID>
46947381

> <PubChem SID>
253658375

$$$$

  Mrv2115 07222212352D          

 32 34  0  0  0  0            999 V2000
   -3.1034    2.1599    0.0000 C   0  0  0  0  0  0  0  0  0  0  0  0
   -2.6909    1.4455    0.0000 C   0  0  0  0  0  0  0  0  0  0  0  0
   -3.1034    0.7310    0.0000 O   0  0  0  0  0  0  0  0  0  0  0  0
   -2.6909    0.0165    0.0000 C   0  0  0  0  0  0  0  0  0  0  0  0
   -1.8659    0.0165    0.0000 C   0  0  0  0  0  0  0  0  0  0  0  0
   -1.4534   -0.6979    0.0000 C   0  0  0  0  0  0  0  0  0  0  0  0
   -0.6284   -0.6979    0.0000 N   0  0  0  0  0  0  0  0  0  0  0  0
   -0.1435   -1.3654    0.0000 N   0  0  0  0  0  0  0  0  0  0  0  0
    0.6411   -1.1104    0.0000 C   0  0  0  0  0  0  0  0  0  0  0  0
    0.6411   -0.2854    0.0000 N   0  0  0  0  0  0  0  0  0  0  0  0
   -0.1435   -0.0305    0.0000 C   0  0  0  0  0  0  0  0  0  0  0  0
   -0.3984    0.7541    0.0000 O   0  0  0  0  0  0  0  0  0  0  0  0
    1.3556    0.1271    0.0000 C   0  0  0  0  0  0  0  0  0  0  0  0
    2.0701   -0.2854    0.0000 C   0  0  0  0  0  0  0  0  0  0  0  0
    2.0701   -1.1104    0.0000 C   0  0  0  0  0  0  0  0  0  0  0  0
    1.3556   -1.5229    0.0000 C   0  0  0  0  0  0  0  0  0  0  0  0
   -1.8659   -1.4124    0.0000 C   0  0  0  0  0  0  0  0  0  0  0  0
   -1.4534   -2.1269    0.0000 F   0  0  0  0  0  0  0  0  0  0  0  0
   -2.6909   -1.4124    0.0000 C   0  0  0  0  0  0  0  0  0  0  0  0
   -3.1034   -0.6979    0.0000 C   0  0  0  0  0  0  0  0  0  0  0  0
   -3.9284   -0.6979    0.0000 C   0  0  0  0  0  0  0  0  0  0  0  0
   -4.3409    0.0165    0.0000 O   0  0  0  0  0  0  0  0  0  0  0  0
   -4.3409   -1.4124    0.0000 N   0  0  0  0  0  0  0  0  0  0  0  0
   -5.1659   -1.4124    0.0000 C   0  0  0  0  0  0  0  0  0  0  0  0
   -5.5784   -2.1269    0.0000 C   0  0  0  0  0  0  0  0  0  0  0  0
   -5.9909   -2.8414    0.0000 C   0  0  0  0  0  0  0  0  0  0  0  0
   -6.2929   -1.7144    0.0000 C   0  0  0  0  0  0  0  0  0  0  0  0
   -4.8640   -2.5394    0.0000 O   0  0  0  0  0  0  0  0  0  0  0  0
   -1.8659    1.4455    0.0000 C   0  0  0  0  0  0  0  0  0  0  0  0
   -1.8659    0.6205    0.0000 F   0  0  0  0  0  0  0  0  0  0  0  0
   -1.8659    2.2705    0.0000 F   0  0  0  0  0  0  0  0  0  0  0  0
   -1.0409    1.4455    0.0000 F   0  0  0  0  0  0  0  0  0  0  0  0
  1  2  1  0  0  0  0
  2  3  1  0  0  0  0
  3  4  1  0  0  0  0
  4  5  4  0  0  0  0
  5  6  4  0  0  0  0
  6  7  1  0  0  0  0
  7  8  4  0  0  0  0
  8  9  4  0  0  0  0
  9 10  4  0  0  0  0
 10 11  4  0  0  0  0
  7 11  4  0  0  0  0
 11 12  2  0  0  0  0
 10 13  1  0  0  0  0
 13 14  1  0  0  0  0
 14 15  1  0  0  0  0
 15 16  1  0  0  0  0
  9 16  1  0  0  0  0
  6 17  4  0  0  0  0
 17 18  1  0  0  0  0
 17 19  4  0  0  0  0
 19 20  4  0  0  0  0
  4 20  4  0  0  0  0
 20 21  1  0  0  0  0
 21 22  2  0  0  0  0
 21 23  1  0  0  0  0
 23 24  1  0  0  0  0
 24 25  1  0  0  0  0
 25 26  1  0  0  0  0
 25 27  1  0  0  0  0
 25 28  1  0  0  0  0
  2 29  1  0  0  0  0
 29 30  1  0  0  0  0
 29 31  1  0  0  0  0
 29 32  1  0  0  0  0
M  END
> <IC50(uM)>
1.8

> <Outcome>
0.0

> <BindingDB ID>
1020476

> <BindingDB MonomerID>
490424

> <BindingDB Ligand Name>
5-fluoro-N-(2-hydroxy-2-methylpropyl)-4-(3-oxo-5,6,7,8-tetrahydro[1,2,4]triazolo[4,3-a]pyridin-2(3H)-yl)-2-{[(2S)-1,1,1-trifluoropropan-2-yl]oxy}benzamide::US10968216, Example 92

> <Curation/DataSource>
US Patent

> <Article DOI>
?

> <PMID>
?

> <Patent Number>
US10968216

> <Authors>
Gradl, SN; Nguyen, D; Eis, K; Gunther, J; Stellfeld, T; Janzer, A; Christian, S; Mueller, T; Sheikh, SE; Zhou, HJ; Zhao, C; Sykes, DB; Ferrara, SJ; Liu, K; Herbert, SA; Merz, C; Niehues, M; Nising, CF; Schafer, M; Zimmermann, K; Knablein, J; Thede, K; Faupel, T

> <Link to Ligand in BindingDB>
http://www.bindingdb.org/bind/chemsearch/marvin/MolStructure.jsp?monomerid=490424

> <Link to Ligand-Target Pair in BindingDB>
http://www.bindingdb.org/jsp/dbsearch/PrimarySearch_ki.jsp?energyterm=kJ/mole&tag=r21&monomerid=490424&enzyme=Dihydroorotate+dehydrogenase&column=ki&startPg=0&Increment=50&submit=Search

> <PubChem CID>
142335870

> <PubChem SID>
447117151

$$$$

  Mrv2115 07222212352D          

 32 36  0  0  0  0            999 V2000
    3.9934    2.4750    0.0000 O   0  0  0  0  0  0  0  0  0  0  0  0
    3.2789    2.0625    0.0000 C   0  0  0  0  0  0  0  0  0  0  0  0
    2.5645    2.4750    0.0000 O   0  0  0  0  0  0  0  0  0  0  0  0
    3.2789    1.2375    0.0000 C   0  0  0  0  0  0  0  0  0  0  0  0
    3.9934    0.8250    0.0000 C   0  0  0  0  0  0  0  0  0  0  0  0
    3.9934    0.0000    0.0000 C   0  0  0  0  0  0  0  0  0  0  0  0
    3.2789   -0.4125    0.0000 C   0  0  0  0  0  0  0  0  0  0  0  0
    2.5645    0.0000    0.0000 C   0  0  0  0  0  0  0  0  0  0  0  0
    1.7798   -0.2549    0.0000 N   0  0  0  0  0  0  0  0  0  0  0  0
    1.2949    0.4125    0.0000 C   0  0  0  0  0  0  0  0  0  0  0  0
    0.4699    0.4125    0.0000 C   0  0  0  0  0  0  0  0  0  0  0  0
    0.0574   -0.3020    0.0000 C   0  0  0  0  0  0  0  0  0  0  0  0
   -0.7676   -0.3020    0.0000 C   0  0  0  0  0  0  0  0  0  0  0  0
   -1.1801    0.4125    0.0000 C   0  0  0  0  0  0  0  0  0  0  0  0
   -2.0051    0.4125    0.0000 C   0  0  0  0  0  0  0  0  0  0  0  0
   -2.4176   -0.3020    0.0000 C   0  0  0  0  0  0  0  0  0  0  0  0
   -3.2426   -0.3020    0.0000 C   0  0  0  0  0  0  0  0  0  0  0  0
   -3.6551    0.4125    0.0000 C   0  0  0  0  0  0  0  0  0  0  0  0
   -3.2426    1.1270    0.0000 C   0  0  0  0  0  0  0  0  0  0  0  0
   -3.6551    1.8414    0.0000 O   0  0  0  0  0  0  0  0  0  0  0  0
   -4.4801    1.8414    0.0000 C   0  0  0  0  0  0  0  0  0  0  0  0
   -4.8926    2.5559    0.0000 C   0  0  0  0  0  0  0  0  0  0  0  0
   -5.7176    2.5559    0.0000 C   0  0  0  0  0  0  0  0  0  0  0  0
   -6.1301    3.2704    0.0000 C   0  0  0  0  0  0  0  0  0  0  0  0
   -5.7176    3.9849    0.0000 C   0  0  0  0  0  0  0  0  0  0  0  0
   -4.8926    3.9849    0.0000 C   0  0  0  0  0  0  0  0  0  0  0  0
   -4.4801    3.2704    0.0000 C   0  0  0  0  0  0  0  0  0  0  0  0
   -2.4176    1.1270    0.0000 C   0  0  0  0  0  0  0  0  0  0  0  0
   -0.7676    1.1270    0.0000 C   0  0  0  0  0  0  0  0  0  0  0  0
    0.0574    1.1270    0.0000 C   0  0  0  0  0  0  0  0  0  0  0  0
    1.7798    1.0799    0.0000 N   0  0  0  0  0  0  0  0  0  0  0  0
    2.5645    0.8250    0.0000 C   0  0  0  0  0  0  0  0  0  0  0  0
  1  2  2  0  0  0  0
  2  3  1  0  0  0  0
  2  4  1  0  0  0  0
  4  5  4  0  0  0  0
  5  6  4  0  0  0  0
  6  7  4  0  0  0  0
  7  8  4  0  0  0  0
  8  9  4  0  0  0  0
  9 10  4  0  0  0  0
 10 11  1  0  0  0  0
 11 12  4  0  0  0  0
 12 13  4  0  0  0  0
 13 14  4  0  0  0  0
 14 15  1  0  0  0  0
 15 16  4  0  0  0  0
 16 17  4  0  0  0  0
 17 18  4  0  0  0  0
 18 19  4  0  0  0  0
 19 20  1  0  0  0  0
 20 21  1  0  0  0  0
 21 22  1  0  0  0  0
 22 23  4  0  0  0  0
 23 24  4  0  0  0  0
 24 25  4  0  0  0  0
 25 26  4  0  0  0  0
 26 27  4  0  0  0  0
 22 27  4  0  0  0  0
 19 28  4  0  0  0  0
 15 28  4  0  0  0  0
 14 29  4  0  0  0  0
 29 30  4  0  0  0  0
 11 30  4  0  0  0  0
 10 31  4  0  0  0  0
 31 32  4  0  0  0  0
  4 32  4  0  0  0  0
  8 32  4  0  0  0  0
M  STY  1   1 DAT
M  SAL   1  1   9
M  SDT   1 MRV_IMPLICIT_H                                        
M  SDD   1     0.5304   -0.4125    DR    ALL  0       0  
M  SED   1 IMPL_H1
M  END
> <IC50(uM)>
1.3

> <Outcome>
0.0

> <BindingDB ID>
297820

> <BindingDB MonomerID>
155476

> <BindingDB Ligand Name>
US9006454, I118

> <Curation/DataSource>
US Patent

> <Article DOI>
?

> <PMID>
?

> <Patent Number>
US9006454

> <Authors>
Thunuguntla, SS; Subramanya, H; Kunnam, SR; Sanivaru Vijay, SR; Bingi, C; Kusanur, R; Schwarz, M; Arlt, M

> <Link to Ligand in BindingDB>
http://www.bindingdb.org/bind/chemsearch/marvin/MolStructure.jsp?monomerid=155476

> <Link to Ligand-Target Pair in BindingDB>
http://www.bindingdb.org/jsp/dbsearch/PrimarySearch_ki.jsp?energyterm=kJ/mole&tag=r21&monomerid=155476&enzyme=Dihydroorotate+dehydrogenase&column=ki&startPg=0&Increment=50&submit=Search

> <PubChem CID>
58073758

> <PubChem SID>
253658413

$$$$

  Mrv2115 07222212352D          

 37 40  0  0  0  0            999 V2000
   -7.7458    0.0134    0.0000 C   0  0  0  0  0  0  0  0  0  0  0  0
   -6.9208    0.0134    0.0000 C   0  0  0  0  0  0  0  0  0  0  0  0
   -6.5083   -0.7011    0.0000 C   0  0  0  0  0  0  0  0  0  0  0  0
   -5.6833   -0.7011    0.0000 C   0  0  0  0  0  0  0  0  0  0  0  0
   -5.2708   -1.4156    0.0000 C   0  0  0  0  0  0  0  0  0  0  0  0
   -5.2708    0.0134    0.0000 C   0  0  0  0  0  0  0  0  0  0  0  0
   -4.4458    0.0134    0.0000 N   0  0  0  0  0  0  0  0  0  0  0  0
   -4.0333   -0.7011    0.0000 C   0  0  0  0  0  0  0  0  0  0  0  0
   -4.4458   -1.4156    0.0000 O   0  0  0  0  0  0  0  0  0  0  0  0
   -3.2083   -0.7011    0.0000 C   0  0  0  0  0  0  0  0  0  0  0  0
   -2.7958    0.0134    0.0000 C   0  0  0  0  0  0  0  0  0  0  0  0
   -1.9708    0.0134    0.0000 C   0  0  0  0  0  0  0  0  0  0  0  0
   -1.5583    0.7279    0.0000 F   0  0  0  0  0  0  0  0  0  0  0  0
   -1.5583   -0.7011    0.0000 C   0  0  0  0  0  0  0  0  0  0  0  0
   -0.7333   -0.7011    0.0000 N   0  0  0  0  0  0  0  0  0  0  0  0
   -0.2483   -1.3685    0.0000 N   0  0  0  0  0  0  0  0  0  0  0  0
    0.5363   -1.1136    0.0000 C   0  0  0  0  0  0  0  0  0  0  0  0
    0.5363   -0.2886    0.0000 N   0  0  0  0  0  0  0  0  0  0  0  0
   -0.2483   -0.0336    0.0000 C   0  0  0  0  0  0  0  0  0  0  0  0
   -0.5033    0.7510    0.0000 O   0  0  0  0  0  0  0  0  0  0  0  0
    1.1813    0.2258    0.0000 C   0  0  0  0  0  0  0  0  0  0  0  0
    1.9856    0.0422    0.0000 C   0  0  0  0  0  0  0  0  0  0  0  0
    2.3436   -0.7011    0.0000 C   0  0  0  0  0  0  0  0  0  0  0  0
    1.9856   -1.4444    0.0000 O   0  0  0  0  0  0  0  0  0  0  0  0
    1.1813   -1.6280    0.0000 C   0  0  0  0  0  0  0  0  0  0  0  0
   -1.9708   -1.4156    0.0000 C   0  0  0  0  0  0  0  0  0  0  0  0
   -2.7958   -1.4156    0.0000 C   0  0  0  0  0  0  0  0  0  0  0  0
   -3.2083   -2.1300    0.0000 O   0  0  0  0  0  0  0  0  0  0  0  0
   -2.7958   -2.8445    0.0000 C   0  0  0  0  0  0  0  0  0  0  0  0
   -1.9708   -2.8445    0.0000 C   0  0  0  0  0  0  0  0  0  0  0  0
   -3.2083   -3.5590    0.0000 C   0  0  0  0  0  0  0  0  0  0  0  0
   -3.9227   -3.1465    0.0000 F   0  0  0  0  0  0  0  0  0  0  0  0
   -2.4938   -3.9715    0.0000 F   0  0  0  0  0  0  0  0  0  0  0  0
   -3.6208   -4.2734    0.0000 F   0  0  0  0  0  0  0  0  0  0  0  0
   -5.6833    0.7279    0.0000 C   0  0  0  0  0  0  0  0  0  0  0  0
   -5.2708    1.4423    0.0000 Cl  0  0  0  0  0  0  0  0  0  0  0  0
   -6.5083    0.7279    0.0000 N   0  0  0  0  0  0  0  0  0  0  0  0
  1  2  1  0  0  0  0
  2  3  4  0  0  0  0
  3  4  4  0  0  0  0
  4  5  1  0  0  0  0
  4  6  4  0  0  0  0
  6  7  1  0  0  0  0
  7  8  1  0  0  0  0
  8  9  2  0  0  0  0
  8 10  1  0  0  0  0
 10 11  4  0  0  0  0
 11 12  4  0  0  0  0
 12 13  1  0  0  0  0
 12 14  4  0  0  0  0
 14 15  1  0  0  0  0
 15 16  4  0  0  0  0
 16 17  4  0  0  0  0
 17 18  4  0  0  0  0
 18 19  4  0  0  0  0
 15 19  4  0  0  0  0
 19 20  2  0  0  0  0
 18 21  1  0  0  0  0
 21 22  1  0  0  0  0
 22 23  1  0  0  0  0
 23 24  1  0  0  0  0
 24 25  1  0  0  0  0
 17 25  1  0  0  0  0
 14 26  4  0  0  0  0
 26 27  4  0  0  0  0
 10 27  4  0  0  0  0
 27 28  1  0  0  0  0
 28 29  1  0  0  0  0
 29 30  1  0  0  0  0
 29 31  1  0  0  0  0
 31 32  1  0  0  0  0
 31 33  1  0  0  0  0
 31 34  1  0  0  0  0
  6 35  4  0  0  0  0
 35 36  1  0  0  0  0
 35 37  4  0  0  0  0
  2 37  4  0  0  0  0
M  END
> <IC50(uM)>
0.023

> <Outcome>
1.0

> <BindingDB ID>
1020643

> <BindingDB MonomerID>
490572

> <BindingDB Ligand Name>
N-(2-chloro-4,6-dimethylpyridin-3-yl)-5-fluoro-4-(3-oxo-6,7-dihydro-3H,5H-[1,2,4]triazolo[3,4-c][1,4]oxazepin-2(9H)-yl)-2-{[(2S)-1,1,1-trifluoropropan-2-yl]oxy}benzamide::US10968216, Example 240

> <Curation/DataSource>
US Patent

> <Article DOI>
?

> <PMID>
?

> <Patent Number>
US10968216

> <Authors>
Gradl, SN; Nguyen, D; Eis, K; Gunther, J; Stellfeld, T; Janzer, A; Christian, S; Mueller, T; Sheikh, SE; Zhou, HJ; Zhao, C; Sykes, DB; Ferrara, SJ; Liu, K; Herbert, SA; Merz, C; Niehues, M; Nising, CF; Schafer, M; Zimmermann, K; Knablein, J; Thede, K; Faupel, T

> <Link to Ligand in BindingDB>
http://www.bindingdb.org/bind/chemsearch/marvin/MolStructure.jsp?monomerid=490572

> <Link to Ligand-Target Pair in BindingDB>
http://www.bindingdb.org/jsp/dbsearch/PrimarySearch_ki.jsp?energyterm=kJ/mole&tag=r21&monomerid=490572&enzyme=Dihydroorotate+dehydrogenase&column=ki&startPg=0&Increment=50&submit=Search

> <PubChem CID>
134474047

> <PubChem SID>
447117298

$$$$

  Mrv2115 07222212352D          

 27 31  0  0  0  0            999 V2000
    3.3523   -0.2854    0.0000 O   0  0  0  0  0  0  0  0  0  0  0  0
    3.3523   -1.1104    0.0000 C   0  0  0  0  0  0  0  0  0  0  0  0
    4.0668   -1.5229    0.0000 C   0  0  0  0  0  0  0  0  0  0  0  0
    4.7812   -1.1104    0.0000 C   0  0  0  0  0  0  0  0  0  0  0  0
    5.4957   -1.5229    0.0000 C   0  0  0  0  0  0  0  0  0  0  0  0
    5.4957   -2.3479    0.0000 C   0  0  0  0  0  0  0  0  0  0  0  0
    4.7812   -2.7604    0.0000 C   0  0  0  0  0  0  0  0  0  0  0  0
    4.0668   -2.3479    0.0000 C   0  0  0  0  0  0  0  0  0  0  0  0
    3.3523   -2.7604    0.0000 C   0  0  0  0  0  0  0  0  0  0  0  0
    3.3523   -3.5854    0.0000 O   0  0  0  0  0  0  0  0  0  0  0  0
    2.6378   -2.3479    0.0000 C   0  0  0  0  0  0  0  0  0  0  0  0
    2.6378   -1.5229    0.0000 C   0  0  0  0  0  0  0  0  0  0  0  0
    1.8532   -1.2680    0.0000 N   0  0  0  0  0  0  0  0  0  0  0  0
    1.3683   -1.9354    0.0000 N   0  0  0  0  0  0  0  0  0  0  0  0
    1.8532   -2.6029    0.0000 N   0  0  0  0  0  0  0  0  0  0  0  0
    1.5983   -3.3875    0.0000 C   0  0  0  0  0  0  0  0  0  0  0  0
    2.1503   -4.0006    0.0000 C   0  0  0  0  0  0  0  0  0  0  0  0
    1.8953   -4.7852    0.0000 C   0  0  0  0  0  0  0  0  0  0  0  0
    1.0884   -4.9567    0.0000 C   0  0  0  0  0  0  0  0  0  0  0  0
    0.8334   -5.7414    0.0000 N   0  0  0  0  0  0  0  0  0  0  0  0
    1.3855   -6.3545    0.0000 C   0  0  0  0  0  0  0  0  0  0  0  0
    1.1305   -7.1391    0.0000 C   0  0  0  0  0  0  0  0  0  0  0  0
    0.3236   -7.3106    0.0000 O   0  0  0  0  0  0  0  0  0  0  0  0
   -0.2285   -6.6975    0.0000 C   0  0  0  0  0  0  0  0  0  0  0  0
    0.0265   -5.9129    0.0000 C   0  0  0  0  0  0  0  0  0  0  0  0
    0.5363   -4.3437    0.0000 N   0  0  0  0  0  0  0  0  0  0  0  0
    0.7913   -3.5590    0.0000 C   0  0  0  0  0  0  0  0  0  0  0  0
  1  2  2  0  0  0  0
  2  3  1  0  0  0  0
  3  4  4  0  0  0  0
  4  5  4  0  0  0  0
  5  6  4  0  0  0  0
  6  7  4  0  0  0  0
  7  8  4  0  0  0  0
  3  8  4  0  0  0  0
  8  9  1  0  0  0  0
  9 10  2  0  0  0  0
  9 11  1  0  0  0  0
 11 12  4  0  0  0  0
  2 12  1  0  0  0  0
 12 13  4  0  0  0  0
 13 14  4  0  0  0  0
 14 15  4  0  0  0  0
 11 15  4  0  0  0  0
 15 16  1  0  0  0  0
 16 17  4  0  0  0  0
 17 18  4  0  0  0  0
 18 19  4  0  0  0  0
 19 20  1  0  0  0  0
 20 21  1  0  0  0  0
 21 22  1  0  0  0  0
 22 23  1  0  0  0  0
 23 24  1  0  0  0  0
 24 25  1  0  0  0  0
 20 25  1  0  0  0  0
 19 26  4  0  0  0  0
 26 27  4  0  0  0  0
 16 27  4  0  0  0  0
M  END
> <IC50(uM)>
1.0

> <Outcome>
1.0

> <BindingDB ID>
51338180

> <BindingDB MonomerID>
50541654

> <BindingDB Ligand Name>
CHEMBL4643462

> <Curation/DataSource>
ChEMBL

> <Article DOI>
10.1021/acs.jmedchem.0c00512

> <PMID>
32496056

> <Patent Number>
?

> <Authors>
Zuo, Z; Liu, X; Qian, X; Zeng, T; Sang, N; Liu, H; Zhou, Y; Tao, L; Zhou, X; Su, N; Yu, Y; Chen, Q; Luo, Y; Zhao, Y

> <Link to Ligand in BindingDB>
http://www.bindingdb.org/bind/chemsearch/marvin/MolStructure.jsp?monomerid=50541654

> <Link to Ligand-Target Pair in BindingDB>
http://www.bindingdb.org/jsp/dbsearch/PrimarySearch_ki.jsp?energyterm=kJ/mole&tag=r21&monomerid=50541654&enzyme=Dihydroorotate+dehydrogenase&column=ki&startPg=0&Increment=50&submit=Search

> <PubChem CID>
156019038

> <PubChem SID>
442143217

$$$$

  Mrv2115 07222212352D          

 30 32  0  0  0  0            999 V2000
   -3.4714   -7.5203    0.0000 C   0  0  0  0  0  0  0  0  0  0  0  0
   -2.7569   -7.9328    0.0000 C   0  0  0  0  0  0  0  0  0  0  0  0
   -2.0425   -7.5203    0.0000 C   0  0  0  0  0  0  0  0  0  0  0  0
   -1.3280   -7.9328    0.0000 C   0  0  0  0  0  0  0  0  0  0  0  0
   -0.6135   -7.5203    0.0000 C   0  0  0  0  0  0  0  0  0  0  0  0
    0.1010   -7.9328    0.0000 C   0  0  0  0  0  0  0  0  0  0  0  0
    0.8154   -7.5203    0.0000 O   0  0  0  0  0  0  0  0  0  0  0  0
    1.5299   -7.9328    0.0000 C   0  0  0  0  0  0  0  0  0  0  0  0
    1.5299   -8.7578    0.0000 O   0  0  0  0  0  0  0  0  0  0  0  0
    2.2444   -7.5203    0.0000 C   0  0  0  0  0  0  0  0  0  0  0  0
    2.2444   -6.6953    0.0000 C   0  0  0  0  0  0  0  0  0  0  0  0
    2.9588   -6.2828    0.0000 C   0  0  0  0  0  0  0  0  0  0  0  0
    3.6733   -6.6953    0.0000 C   0  0  0  0  0  0  0  0  0  0  0  0
    3.6733   -7.5203    0.0000 C   0  0  0  0  0  0  0  0  0  0  0  0
    2.9588   -7.9328    0.0000 C   0  0  0  0  0  0  0  0  0  0  0  0
    2.9588   -8.7578    0.0000 C   0  0  0  0  0  0  0  0  0  0  0  0
    2.2444   -9.1703    0.0000 N   0  0  0  0  0  0  0  0  0  0  0  0
    2.2444   -9.9953    0.0000 N   0  0  0  0  0  0  0  0  0  0  0  0
    2.9588  -10.4078    0.0000 C   0  0  0  0  0  0  0  0  0  0  0  0
    3.7125  -10.0722    0.0000 N   0  0  0  0  0  0  0  0  0  0  0  0
    4.2645  -10.6853    0.0000 C   0  0  0  0  0  0  0  0  0  0  0  0
    5.0850  -10.5991    0.0000 C   0  0  0  0  0  0  0  0  0  0  0  0
    5.4206   -9.8454    0.0000 C   0  0  0  0  0  0  0  0  0  0  0  0
    6.2411   -9.7592    0.0000 C   0  0  0  0  0  0  0  0  0  0  0  0
    6.7260  -10.4266    0.0000 C   0  0  0  0  0  0  0  0  0  0  0  0
    6.3904  -11.1803    0.0000 C   0  0  0  0  0  0  0  0  0  0  0  0
    5.5699  -11.2665    0.0000 C   0  0  0  0  0  0  0  0  0  0  0  0
    5.2344  -12.0202    0.0000 Cl  0  0  0  0  0  0  0  0  0  0  0  0
    3.8520  -11.3998    0.0000 C   0  0  0  0  0  0  0  0  0  0  0  0
    3.0451  -11.2283    0.0000 S   0  0  0  0  0  0  0  0  0  0  0  0
  1  2  1  0  0  0  0
  2  3  1  0  0  0  0
  3  4  1  0  0  0  0
  4  5  1  0  0  0  0
  5  6  1  0  0  0  0
  6  7  1  0  0  0  0
  7  8  1  0  0  0  0
  8  9  2  0  0  0  0
  8 10  1  0  0  0  0
 10 11  4  0  0  0  0
 11 12  4  0  0  0  0
 12 13  4  0  0  0  0
 13 14  4  0  0  0  0
 14 15  4  0  0  0  0
 10 15  4  0  0  0  0
 15 16  1  0  0  0  0
 16 17  2  0  0  0  0
 17 18  1  0  0  0  0
 18 19  1  0  0  0  0
 19 20  4  0  0  0  0
 20 21  4  0  0  0  0
 21 22  1  0  0  0  0
 22 23  4  0  0  0  0
 23 24  4  0  0  0  0
 24 25  4  0  0  0  0
 25 26  4  0  0  0  0
 26 27  4  0  0  0  0
 22 27  4  0  0  0  0
 27 28  1  0  0  0  0
 21 29  4  0  0  0  0
 29 30  4  0  0  0  0
 19 30  4  0  0  0  0
M  END
> <IC50(uM)>
50.0

> <Outcome>
0.0

> <BindingDB ID>
1001141

> <BindingDB MonomerID>
482827

> <BindingDB Ligand Name>
US10919869, No.  A7

> <Curation/DataSource>
US Patent

> <Article DOI>
?

> <PMID>
?

> <Patent Number>
US10919869

> <Authors>
Li, H; Xu, Y; Wang, R; Zhao, Z; Song, W; Xu, L

> <Link to Ligand in BindingDB>
http://www.bindingdb.org/bind/chemsearch/marvin/MolStructure.jsp?monomerid=482827

> <Link to Ligand-Target Pair in BindingDB>
http://www.bindingdb.org/jsp/dbsearch/PrimarySearch_ki.jsp?energyterm=kJ/mole&tag=r21&monomerid=482827&enzyme=Dihydroorotate+dehydrogenase&column=ki&startPg=0&Increment=50&submit=Search

> <PubChem CID>
132157917

> <PubChem SID>
443551967

$$$$

  Mrv2115 07222212352D          

 35 37  0  0  0  0            999 V2000
    2.1434   -3.7125    0.0000 C   0  0  0  0  0  0  0  0  0  0  0  0
    1.4289   -4.1250    0.0000 C   0  0  0  0  0  0  0  0  0  0  0  0
    1.4289   -4.9500    0.0000 N   0  0  0  0  0  0  0  0  0  0  0  0
    0.7615   -5.4349    0.0000 C   0  0  0  0  0  0  0  0  0  0  0  0
   -0.0231   -5.1800    0.0000 S   0  0  0  0  0  0  0  0  0  0  0  0
   -0.1946   -4.3730    0.0000 C   0  0  0  0  0  0  0  0  0  0  0  0
    1.0164   -6.2195    0.0000 N   0  0  0  0  0  0  0  0  0  0  0  0
    1.8414   -6.2195    0.0000 N   0  0  0  0  0  0  0  0  0  0  0  0
    2.3264   -6.8870    0.0000 C   0  0  0  0  0  0  0  0  0  0  0  0
    3.1468   -6.8007    0.0000 C   0  0  0  0  0  0  0  0  0  0  0  0
    3.6318   -7.4682    0.0000 C   0  0  0  0  0  0  0  0  0  0  0  0
    4.4522   -7.3820    0.0000 O   0  0  0  0  0  0  0  0  0  0  0  0
    4.7878   -6.6283    0.0000 C   0  0  0  0  0  0  0  0  0  0  0  0
    4.3029   -5.9608    0.0000 C   0  0  0  0  0  0  0  0  0  0  0  0
    5.6083   -6.5420    0.0000 C   0  0  0  0  0  0  0  0  0  0  0  0
    5.6945   -7.3625    0.0000 F   0  0  0  0  0  0  0  0  0  0  0  0
    5.5221   -5.7216    0.0000 F   0  0  0  0  0  0  0  0  0  0  0  0
    6.4288   -6.4558    0.0000 F   0  0  0  0  0  0  0  0  0  0  0  0
    3.2962   -8.2219    0.0000 C   0  0  0  0  0  0  0  0  0  0  0  0
    3.7811   -8.8893    0.0000 C   0  0  0  0  0  0  0  0  0  0  0  0
    3.4456   -9.6430    0.0000 O   0  0  0  0  0  0  0  0  0  0  0  0
    4.6016   -8.8031    0.0000 N   0  0  0  0  0  0  0  0  0  0  0  0
    5.0865   -9.4705    0.0000 C   0  0  0  0  0  0  0  0  0  0  0  0
    5.9070   -9.3843    0.0000 C   0  0  0  0  0  0  0  0  0  0  0  0
    6.2426   -8.6306    0.0000 F   0  0  0  0  0  0  0  0  0  0  0  0
    6.3919  -10.0517    0.0000 C   0  0  0  0  0  0  0  0  0  0  0  0
    6.0564  -10.8054    0.0000 C   0  0  0  0  0  0  0  0  0  0  0  0
    5.2359  -10.8916    0.0000 C   0  0  0  0  0  0  0  0  0  0  0  0
    4.7510  -10.2242    0.0000 C   0  0  0  0  0  0  0  0  0  0  0  0
    3.9305  -10.3104    0.0000 F   0  0  0  0  0  0  0  0  0  0  0  0
    2.4757   -8.3081    0.0000 C   0  0  0  0  0  0  0  0  0  0  0  0
    1.9908   -7.6407    0.0000 C   0  0  0  0  0  0  0  0  0  0  0  0
    1.1703   -7.7269    0.0000 F   0  0  0  0  0  0  0  0  0  0  0  0
    2.0964   -5.4349    0.0000 C   0  0  0  0  0  0  0  0  0  0  0  0
    2.8810   -5.1800    0.0000 O   0  0  0  0  0  0  0  0  0  0  0  0
  1  2  1  0  0  0  0
  2  3  1  0  0  0  0
  3  4  4  0  0  0  0
  4  5  1  0  0  0  0
  5  6  1  0  0  0  0
  4  7  4  0  0  0  0
  7  8  4  0  0  0  0
  8  9  1  0  0  0  0
  9 10  4  0  0  0  0
 10 11  4  0  0  0  0
 11 12  1  0  0  0  0
 12 13  1  0  0  0  0
 13 14  1  0  0  0  0
 13 15  1  0  0  0  0
 15 16  1  0  0  0  0
 15 17  1  0  0  0  0
 15 18  1  0  0  0  0
 11 19  4  0  0  0  0
 19 20  1  0  0  0  0
 20 21  2  0  0  0  0
 20 22  1  0  0  0  0
 22 23  1  0  0  0  0
 23 24  4  0  0  0  0
 24 25  1  0  0  0  0
 24 26  4  0  0  0  0
 26 27  4  0  0  0  0
 27 28  4  0  0  0  0
 28 29  4  0  0  0  0
 23 29  4  0  0  0  0
 29 30  1  0  0  0  0
 19 31  4  0  0  0  0
 31 32  4  0  0  0  0
  9 32  4  0  0  0  0
 32 33  1  0  0  0  0
  8 34  4  0  0  0  0
  3 34  4  0  0  0  0
 34 35  2  0  0  0  0
M  END
> <IC50(uM)>
0.15

> <Outcome>
1.0

> <BindingDB ID>
972573; 1098727

> <BindingDB MonomerID>
470448

> <BindingDB Ligand Name>
N-(2,6-difluorophenyl)-4-[4-ethyl-3-(methylsulfanyl)-5-oxo-4,5-dihydro-1H-1,2,4-triazol-1-yl]-5-fluoro-2-{[(2S)-1,1,1-trifluoropropan-2-yl]oxy}benzamide::US10815215, Example 115; N-(2,6-difluorophenyl)-4-[4-ethyl-3-(methylsulfanyl)-5-oxo-4,5-dihydro-1H-1,2,4-triazol-1-yl]-5-fluoro-2-{[(2S)-1,1,1-trifluoropropan-2-yl]oxy}benzamide::US10815215, Example 115::US11130745, Example 115

> <Curation/DataSource>
US Patent

> <Article DOI>
?

> <PMID>
?

> <Patent Number>
US10815215; US11130745

> <Authors>
Gradl, SN; Nguyen, D; Eis, K; Gunther, J; Stellfeld, T; Janzer, A; Christian, S; Muller, T; Sheikh, SE; Zhou, HJ; Zhao, C; Sykes, DB; Ferrara, SJ; Liu, K; Krober, M; Merz, C; Niehues, M; Schafer, M; Zimmermann, K; Nising, CF; Gradl, SN; Nguyen, D; Eis, K; Gunther, J; Stellfeld, T; Janzer, A; Christian, S; Muller, T; Sheikh, SE; Sykes, DB; Ferrara, SJ; Krober, M; Merz, C; Niehues, M; Schafer, M; Zimmermann, K; Nising, CF

> <Link to Ligand in BindingDB>
http://www.bindingdb.org/bind/chemsearch/marvin/MolStructure.jsp?monomerid=470448

> <Link to Ligand-Target Pair in BindingDB>
http://www.bindingdb.org/jsp/dbsearch/PrimarySearch_ki.jsp?energyterm=kJ/mole&tag=r21&monomerid=470448&enzyme=Dihydroorotate+dehydrogenase&column=ki&startPg=0&Increment=50&submit=Search

> <PubChem CID>
134470099

> <PubChem SID>
441609625

$$$$

  Mrv2115 07222212352D          

 36 39  0  0  0  0            999 V2000
   -5.1659    1.4455    0.0000 C   0  0  0  0  0  0  0  0  0  0  0  0
   -4.3409    1.4455    0.0000 C   0  0  0  0  0  0  0  0  0  0  0  0
   -3.9284    2.1599    0.0000 C   0  0  0  0  0  0  0  0  0  0  0  0
   -3.1034    2.1599    0.0000 C   0  0  0  0  0  0  0  0  0  0  0  0
   -2.6909    2.8744    0.0000 F   0  0  0  0  0  0  0  0  0  0  0  0
   -2.6909    1.4455    0.0000 C   0  0  0  0  0  0  0  0  0  0  0  0
   -1.8659    1.4455    0.0000 F   0  0  0  0  0  0  0  0  0  0  0  0
   -3.1034    0.7310    0.0000 C   0  0  0  0  0  0  0  0  0  0  0  0
   -3.9284    0.7310    0.0000 C   0  0  0  0  0  0  0  0  0  0  0  0
   -4.3409    0.0165    0.0000 N   0  0  0  0  0  0  0  0  0  0  0  0
   -3.9284   -0.6979    0.0000 C   0  0  0  0  0  0  0  0  0  0  0  0
   -4.3409   -1.4124    0.0000 O   0  0  0  0  0  0  0  0  0  0  0  0
   -3.1034   -0.6979    0.0000 C   0  0  0  0  0  0  0  0  0  0  0  0
   -2.6909    0.0165    0.0000 C   0  0  0  0  0  0  0  0  0  0  0  0
   -1.8659    0.0165    0.0000 C   0  0  0  0  0  0  0  0  0  0  0  0
   -1.4534    0.7310    0.0000 F   0  0  0  0  0  0  0  0  0  0  0  0
   -1.4534   -0.6979    0.0000 C   0  0  0  0  0  0  0  0  0  0  0  0
   -0.6284   -0.6979    0.0000 N   0  0  0  0  0  0  0  0  0  0  0  0
   -0.1435   -1.3654    0.0000 N   0  0  0  0  0  0  0  0  0  0  0  0
    0.6411   -1.1104    0.0000 C   0  0  0  0  0  0  0  0  0  0  0  0
    0.6411   -0.2854    0.0000 N   0  0  0  0  0  0  0  0  0  0  0  0
   -0.1435   -0.0305    0.0000 C   0  0  0  0  0  0  0  0  0  0  0  0
   -0.3984    0.7541    0.0000 O   0  0  0  0  0  0  0  0  0  0  0  0
    1.3556    0.1271    0.0000 C   0  0  0  0  0  0  0  0  0  0  0  0
    2.0701   -0.2854    0.0000 C   0  0  0  0  0  0  0  0  0  0  0  0
    2.0701   -1.1104    0.0000 O   0  0  0  0  0  0  0  0  0  0  0  0
    1.3556   -1.5229    0.0000 C   0  0  0  0  0  0  0  0  0  0  0  0
   -1.8659   -1.4124    0.0000 C   0  0  0  0  0  0  0  0  0  0  0  0
   -2.6909   -1.4124    0.0000 C   0  0  0  0  0  0  0  0  0  0  0  0
   -3.1034   -2.1269    0.0000 O   0  0  0  0  0  0  0  0  0  0  0  0
   -2.6909   -2.8414    0.0000 C   0  0  0  0  0  0  0  0  0  0  0  0
   -1.8659   -2.8414    0.0000 C   0  0  0  0  0  0  0  0  0  0  0  0
   -3.1034   -3.5558    0.0000 C   0  0  0  0  0  0  0  0  0  0  0  0
   -3.8179   -3.1433    0.0000 F   0  0  0  0  0  0  0  0  0  0  0  0
   -2.3890   -3.9683    0.0000 F   0  0  0  0  0  0  0  0  0  0  0  0
   -3.5159   -4.2703    0.0000 F   0  0  0  0  0  0  0  0  0  0  0  0
  1  2  1  0  0  0  0
  2  3  4  0  0  0  0
  3  4  4  0  0  0  0
  4  5  1  0  0  0  0
  4  6  4  0  0  0  0
  6  7  1  0  0  0  0
  6  8  4  0  0  0  0
  8  9  4  0  0  0  0
  2  9  4  0  0  0  0
  9 10  1  0  0  0  0
 10 11  1  0  0  0  0
 11 12  2  0  0  0  0
 11 13  1  0  0  0  0
 13 14  4  0  0  0  0
 14 15  4  0  0  0  0
 15 16  1  0  0  0  0
 15 17  4  0  0  0  0
 17 18  1  0  0  0  0
 18 19  4  0  0  0  0
 19 20  4  0  0  0  0
 20 21  4  0  0  0  0
 21 22  4  0  0  0  0
 18 22  4  0  0  0  0
 22 23  2  0  0  0  0
 21 24  1  0  0  0  0
 24 25  1  0  0  0  0
 25 26  1  0  0  0  0
 26 27  1  0  0  0  0
 20 27  1  0  0  0  0
 17 28  4  0  0  0  0
 28 29  4  0  0  0  0
 13 29  4  0  0  0  0
 29 30  1  0  0  0  0
 30 31  1  0  0  0  0
 31 32  1  0  0  0  0
 31 33  1  0  0  0  0
 33 34  1  0  0  0  0
 33 35  1  0  0  0  0
 33 36  1  0  0  0  0
M  END
> <IC50(uM)>
0.23

> <Outcome>
1.0

> <BindingDB ID>
1020591

> <BindingDB MonomerID>
490530

> <BindingDB Ligand Name>
N-(4,5-difluoro-2-methylphenyl)-5-fluoro-4-(3-oxo-5,6-dihydro-3H-[1,2,4]triazolo[3,4-c]-[1,4]oxazin-2(8H)-yl)-2-{[(2S)-1,1,1-trifluoropropan-2-yl]oxy}benzamide::US10968216, Example 198

> <Curation/DataSource>
US Patent

> <Article DOI>
?

> <PMID>
?

> <Patent Number>
US10968216

> <Authors>
Gradl, SN; Nguyen, D; Eis, K; Gunther, J; Stellfeld, T; Janzer, A; Christian, S; Mueller, T; Sheikh, SE; Zhou, HJ; Zhao, C; Sykes, DB; Ferrara, SJ; Liu, K; Herbert, SA; Merz, C; Niehues, M; Nising, CF; Schafer, M; Zimmermann, K; Knablein, J; Thede, K; Faupel, T

> <Link to Ligand in BindingDB>
http://www.bindingdb.org/bind/chemsearch/marvin/MolStructure.jsp?monomerid=490530

> <Link to Ligand-Target Pair in BindingDB>
http://www.bindingdb.org/jsp/dbsearch/PrimarySearch_ki.jsp?energyterm=kJ/mole&tag=r21&monomerid=490530&enzyme=Dihydroorotate+dehydrogenase&column=ki&startPg=0&Increment=50&submit=Search

> <PubChem CID>
134474163

> <PubChem SID>
447117256

$$$$

  Mrv2115 07222212352D          

 24 26  0  0  0  0            999 V2000
    4.1904   -0.1949    0.0000 C   0  0  0  0  0  0  0  0  0  0  0  0
    3.7055   -0.8624    0.0000 C   0  0  0  0  0  0  0  0  0  0  0  0
    3.9604   -1.6470    0.0000 N   0  0  0  0  0  0  0  0  0  0  0  0
    3.2930   -2.1319    0.0000 C   0  0  0  0  0  0  0  0  0  0  0  0
    3.2930   -2.9569    0.0000 C   0  0  0  0  0  0  0  0  0  0  0  0
    2.5785   -3.3694    0.0000 O   0  0  0  0  0  0  0  0  0  0  0  0
    4.0075   -3.3694    0.0000 N   0  0  0  0  0  0  0  0  0  0  0  0
    4.0075   -4.1944    0.0000 C   0  0  0  0  0  0  0  0  0  0  0  0
    4.4200   -4.9089    0.0000 C   0  0  0  0  0  0  0  0  0  0  0  0
    3.5950   -4.9089    0.0000 C   0  0  0  0  0  0  0  0  0  0  0  0
    2.6256   -1.6470    0.0000 C   0  0  0  0  0  0  0  0  0  0  0  0
    1.8409   -1.9019    0.0000 C   0  0  0  0  0  0  0  0  0  0  0  0
    2.8805   -0.8624    0.0000 C   0  0  0  0  0  0  0  0  0  0  0  0
    2.3956   -0.1949    0.0000 C   0  0  0  0  0  0  0  0  0  0  0  0
    2.7311    0.5587    0.0000 C   0  0  0  0  0  0  0  0  0  0  0  0
    2.2462    1.2262    0.0000 C   0  0  0  0  0  0  0  0  0  0  0  0
    2.5818    1.9799    0.0000 C   0  0  0  0  0  0  0  0  0  0  0  0
    3.4023    2.0661    0.0000 C   0  0  0  0  0  0  0  0  0  0  0  0
    3.7378    2.8198    0.0000 C   0  0  0  0  0  0  0  0  0  0  0  0
    4.0734    3.5734    0.0000 F   0  0  0  0  0  0  0  0  0  0  0  0
    4.4915    2.4842    0.0000 F   0  0  0  0  0  0  0  0  0  0  0  0
    2.9841    3.1553    0.0000 F   0  0  0  0  0  0  0  0  0  0  0  0
    3.8872    1.3987    0.0000 N   0  0  0  0  0  0  0  0  0  0  0  0
    3.5516    0.6450    0.0000 C   0  0  0  0  0  0  0  0  0  0  0  0
  1  2  1  0  0  0  0
  2  3  4  0  0  0  0
  3  4  4  0  0  0  0
  4  5  1  0  0  0  0
  5  6  2  0  0  0  0
  5  7  1  0  0  0  0
  7  8  1  0  0  0  0
  8  9  1  0  0  0  0
  9 10  1  0  0  0  0
  8 10  1  0  0  0  0
  4 11  4  0  0  0  0
 11 12  1  0  0  0  0
 11 13  4  0  0  0  0
  2 13  4  0  0  0  0
 13 14  1  0  0  0  0
 14 15  1  0  0  0  0
 15 16  4  0  0  0  0
 16 17  4  0  0  0  0
 17 18  4  0  0  0  0
 18 19  1  0  0  0  0
 19 20  1  0  0  0  0
 19 21  1  0  0  0  0
 19 22  1  0  0  0  0
 18 23  4  0  0  0  0
 23 24  4  0  0  0  0
 15 24  4  0  0  0  0
M  STY  1   1 DAT
M  SAL   1  1   3
M  SDT   1 MRV_IMPLICIT_H                                        
M  SDD   1     0.5304   -0.4125    DR    ALL  0       0  
M  SED   1 IMPL_H1
M  END
> <IC50(uM)>
100.0

> <Outcome>
0.0

> <BindingDB ID>
51330090

> <BindingDB MonomerID>
50538338

> <BindingDB Ligand Name>
CHEMBL4643370

> <Curation/DataSource>
ChEMBL

> <Article DOI>
10.1021/acs.jmedchem.0c00311

> <PMID>
32248693

> <Patent Number>
?

> <Authors>
Kokkonda, S; Deng, X; White, KL; El Mazouni, F; White, J; Shackleford, DM; Katneni, K; Chiu, FCK; Barker, H; McLaren, J; Crighton, E; Chen, G; Angulo-Barturen, I; Jimenez-Diaz, MB; Ferrer, S; Huertas-Valentin, L; Martinez-Martinez, MS; Lafuente-Monasterio, MJ; Chittimalla, R; Shahi, SP; Wittlin, S; Waterson, D; Burrows, JN; Matthews, D; Tomchick, D; Rathod, PK; Palmer, MJ; Charman, SA; Phillips, MA

> <Link to Ligand in BindingDB>
http://www.bindingdb.org/bind/chemsearch/marvin/MolStructure.jsp?monomerid=50538338

> <Link to Ligand-Target Pair in BindingDB>
http://www.bindingdb.org/jsp/dbsearch/PrimarySearch_ki.jsp?energyterm=kJ/mole&tag=r21&monomerid=50538338&enzyme=Dihydroorotate+dehydrogenase&column=ki&startPg=0&Increment=50&submit=Search

> <PubChem CID>
156018265

> <PubChem SID>
442139901

$$$$

  Mrv2115 07222212352D          

 32 34  0  0  0  0            999 V2000
   -2.1434   -1.2375    0.0000 C   0  0  0  0  0  0  0  0  0  0  0  0
   -1.4289   -1.6500    0.0000 C   0  0  0  0  0  0  0  0  0  0  0  0
   -1.4289   -2.4750    0.0000 C   0  0  0  0  0  0  0  0  0  0  0  0
   -0.7145   -1.2375    0.0000 C   0  0  0  0  0  0  0  0  0  0  0  0
    0.0000   -1.6500    0.0000 C   0  0  0  0  0  0  0  0  0  0  0  0
    0.0000   -2.4750    0.0000 C   0  0  0  0  0  0  0  0  0  0  0  0
    0.7145   -1.2375    0.0000 O   0  0  0  0  0  0  0  0  0  0  0  0
    0.7145   -0.4125    0.0000 C   0  0  0  0  0  0  0  0  0  0  0  0
    0.0000    0.0000    0.0000 C   0  0  0  0  0  0  0  0  0  0  0  0
    0.0000    0.8250    0.0000 C   0  0  0  0  0  0  0  0  0  0  0  0
   -0.7145    1.2375    0.0000 N   0  0  0  0  0  0  0  0  0  0  0  0
   -1.4681    0.9019    0.0000 N   0  0  0  0  0  0  0  0  0  0  0  0
   -2.0202    1.5150    0.0000 C   0  0  0  0  0  0  0  0  0  0  0  0
   -2.8407    1.4288    0.0000 C   0  0  0  0  0  0  0  0  0  0  0  0
   -3.3256    2.0962    0.0000 C   0  0  0  0  0  0  0  0  0  0  0  0
   -3.1762    0.6751    0.0000 C   0  0  0  0  0  0  0  0  0  0  0  0
   -1.6077    2.2295    0.0000 N   0  0  0  0  0  0  0  0  0  0  0  0
   -1.9432    2.9832    0.0000 C   0  0  0  0  0  0  0  0  0  0  0  0
   -0.8007    2.0580    0.0000 C   0  0  0  0  0  0  0  0  0  0  0  0
   -0.1876    2.6100    0.0000 O   0  0  0  0  0  0  0  0  0  0  0  0
    0.7145    1.2375    0.0000 C   0  0  0  0  0  0  0  0  0  0  0  0
    0.7145    2.0625    0.0000 F   0  0  0  0  0  0  0  0  0  0  0  0
    1.4289    0.8250    0.0000 C   0  0  0  0  0  0  0  0  0  0  0  0
    1.4289    0.0000    0.0000 C   0  0  0  0  0  0  0  0  0  0  0  0
    2.1434   -0.4125    0.0000 C   0  0  0  0  0  0  0  0  0  0  0  0
    2.1434   -1.2375    0.0000 O   0  0  0  0  0  0  0  0  0  0  0  0
    2.8579    0.0000    0.0000 N   0  0  0  0  0  0  0  0  0  0  0  0
    2.8579    0.8250    0.0000 C   0  0  0  0  0  0  0  0  0  0  0  0
    2.1904    1.3099    0.0000 C   0  0  0  0  0  0  0  0  0  0  0  0
    2.4454    2.0945    0.0000 C   0  0  0  0  0  0  0  0  0  0  0  0
    3.2704    2.0945    0.0000 N   0  0  0  0  0  0  0  0  0  0  0  0
    3.5253    1.3099    0.0000 N   0  0  0  0  0  0  0  0  0  0  0  0
  1  2  1  0  0  0  0
  2  3  1  0  0  0  0
  2  4  1  0  0  0  0
  4  5  1  0  0  0  0
  5  6  1  0  0  0  0
  5  7  1  0  0  0  0
  7  8  1  0  0  0  0
  8  9  4  0  0  0  0
  9 10  4  0  0  0  0
 10 11  1  0  0  0  0
 11 12  4  0  0  0  0
 12 13  4  0  0  0  0
 13 14  1  0  0  0  0
 14 15  1  0  0  0  0
 14 16  1  0  0  0  0
 13 17  4  0  0  0  0
 17 18  1  0  0  0  0
 17 19  4  0  0  0  0
 11 19  4  0  0  0  0
 19 20  2  0  0  0  0
 10 21  4  0  0  0  0
 21 22  1  0  0  0  0
 21 23  4  0  0  0  0
 23 24  4  0  0  0  0
  8 24  4  0  0  0  0
 24 25  1  0  0  0  0
 25 26  2  0  0  0  0
 25 27  1  0  0  0  0
 27 28  1  0  0  0  0
 28 29  4  0  0  0  0
 29 30  4  0  0  0  0
 30 31  4  0  0  0  0
 31 32  4  0  0  0  0
 28 32  4  0  0  0  0
M  STY  1   1 DAT
M  SAL   1  1  31
M  SDT   1 MRV_IMPLICIT_H                                        
M  SDD   1     0.5304   -0.4125    DR    ALL  0       0  
M  SED   1 IMPL_H1
M  END
> <IC50(uM)>
20.0

> <Outcome>
0.0

> <BindingDB ID>
1098761; 972607

> <BindingDB MonomerID>
470489

> <BindingDB Ligand Name>
5-fluoro-4-[4-methyl-5-oxo-3-(propan-2-yl)-4,5-dihydro-1H-1,2,4-triazol-1-yl]-2-{[(2S)-4-methyl-pentan-2-yl]oxy}-N-(1H-pyrazol-3-yl)benzamide::US10815215, Example 149::US11130745, Example 149; 5-fluoro-4-[4-methyl-5-oxo-3-(propan-2-yl)-4,5-dihydro-1H-1,2,4-triazol-1-yl]-2-{[(2S)-4-methyl-pentan-2-yl]oxy}-N-(1H-pyrazol-3-yl)benzamide::US10815215, Example 149

> <Curation/DataSource>
US Patent

> <Article DOI>
?

> <PMID>
?

> <Patent Number>
US11130745; US10815215

> <Authors>
Gradl, SN; Nguyen, D; Eis, K; Gunther, J; Stellfeld, T; Janzer, A; Christian, S; Muller, T; Sheikh, SE; Sykes, DB; Ferrara, SJ; Krober, M; Merz, C; Niehues, M; Schafer, M; Zimmermann, K; Nising, CF; Gradl, SN; Nguyen, D; Eis, K; Gunther, J; Stellfeld, T; Janzer, A; Christian, S; Muller, T; Sheikh, SE; Zhou, HJ; Zhao, C; Sykes, DB; Ferrara, SJ; Liu, K; Krober, M; Merz, C; Niehues, M; Schafer, M; Zimmermann, K; Nising, CF

> <Link to Ligand in BindingDB>
http://www.bindingdb.org/bind/chemsearch/marvin/MolStructure.jsp?monomerid=470489

> <Link to Ligand-Target Pair in BindingDB>
http://www.bindingdb.org/jsp/dbsearch/PrimarySearch_ki.jsp?energyterm=kJ/mole&tag=r21&monomerid=470489&enzyme=Dihydroorotate+dehydrogenase&column=ki&startPg=0&Increment=50&submit=Search

> <PubChem CID>
134470075

> <PubChem SID>
441609666

$$$$

  Mrv2115 07222212352D          

 17 18  0  0  0  0            999 V2000
    1.4289   -1.6500    0.0000 C   0  0  0  0  0  0  0  0  0  0  0  0
    1.4289   -2.4750    0.0000 C   0  0  0  0  0  0  0  0  0  0  0  0
    2.0964   -2.9599    0.0000 O   0  0  0  0  0  0  0  0  0  0  0  0
    1.8414   -3.7445    0.0000 N   0  0  0  0  0  0  0  0  0  0  0  0
    1.0164   -3.7445    0.0000 C   0  0  0  0  0  0  0  0  0  0  0  0
    0.7615   -2.9599    0.0000 C   0  0  0  0  0  0  0  0  0  0  0  0
   -0.0231   -2.7050    0.0000 C   0  0  0  0  0  0  0  0  0  0  0  0
   -0.1946   -1.8980    0.0000 S   0  0  0  0  0  0  0  0  0  0  0  0
   -0.6362   -3.2570    0.0000 N   0  0  0  0  0  0  0  0  0  0  0  0
   -1.4208   -3.0021    0.0000 C   0  0  0  0  0  0  0  0  0  0  0  0
   -2.0339   -3.5541    0.0000 C   0  0  0  0  0  0  0  0  0  0  0  0
   -2.8186   -3.2992    0.0000 C   0  0  0  0  0  0  0  0  0  0  0  0
   -2.9901   -2.4922    0.0000 C   0  0  0  0  0  0  0  0  0  0  0  0
   -3.7747   -2.2373    0.0000 C   0  0  0  0  0  0  0  0  0  0  0  0
   -4.5593   -1.9823    0.0000 N   0  0  0  0  0  0  0  0  0  0  0  0
   -2.3770   -1.9402    0.0000 C   0  0  0  0  0  0  0  0  0  0  0  0
   -1.5924   -2.1951    0.0000 C   0  0  0  0  0  0  0  0  0  0  0  0
  1  2  1  0  0  0  0
  2  3  4  0  0  0  0
  3  4  4  0  0  0  0
  4  5  4  0  0  0  0
  5  6  4  0  0  0  0
  2  6  4  0  0  0  0
  6  7  1  0  0  0  0
  7  8  2  0  0  0  0
  7  9  1  0  0  0  0
  9 10  1  0  0  0  0
 10 11  4  0  0  0  0
 11 12  4  0  0  0  0
 12 13  4  0  0  0  0
 13 14  1  0  0  0  0
 14 15  3  0  0  0  0
 13 16  4  0  0  0  0
 16 17  4  0  0  0  0
 10 17  4  0  0  0  0
M  END
> <IC50(uM)>
35.0

> <Outcome>
0.0

> <BindingDB ID>
50123307

> <BindingDB MonomerID>
50071400

> <BindingDB Ligand Name>
5-Methyl-isoxazole-4-carbothioic acid (4-cyano-phenyl)-amide::CHEMBL306100

> <Curation/DataSource>
ChEMBL

> <Article DOI>
10.1016/s0960-894x(98)00365-5

> <PMID>
9873513

> <Patent Number>
?

> <Authors>
Albert, R; Knecht, H; Andersen, E; Hungerford, V; Schreier, MH; Papageorgiou, C

> <Link to Ligand in BindingDB>
http://www.bindingdb.org/bind/chemsearch/marvin/MolStructure.jsp?monomerid=50071400

> <Link to Ligand-Target Pair in BindingDB>
http://www.bindingdb.org/jsp/dbsearch/PrimarySearch_ki.jsp?energyterm=kJ/mole&tag=r21&monomerid=50071400&enzyme=Dihydroorotate+dehydrogenase&column=ki&startPg=0&Increment=50&submit=Search

> <PubChem CID>
44310357

> <PubChem SID>
103965154

$$$$

  Mrv2115 07222212352D          

 38 41  0  0  0  0            999 V2000
   -5.1659   -1.4124    0.0000 C   0  0  0  0  0  0  0  0  0  0  0  0
   -5.5784   -0.6979    0.0000 C   0  0  0  0  0  0  0  0  0  0  0  0
   -6.4034   -0.6979    0.0000 C   0  0  0  0  0  0  0  0  0  0  0  0
   -6.8159    0.0165    0.0000 C   0  0  0  0  0  0  0  0  0  0  0  0
   -6.4034    0.7310    0.0000 C   0  0  0  0  0  0  0  0  0  0  0  0
   -5.5784    0.7310    0.0000 C   0  0  0  0  0  0  0  0  0  0  0  0
   -5.1659    1.4455    0.0000 C   0  0  0  0  0  0  0  0  0  0  0  0
   -4.7534    2.1599    0.0000 F   0  0  0  0  0  0  0  0  0  0  0  0
   -4.4515    1.0330    0.0000 F   0  0  0  0  0  0  0  0  0  0  0  0
   -5.8804    1.8580    0.0000 F   0  0  0  0  0  0  0  0  0  0  0  0
   -5.1659    0.0165    0.0000 C   0  0  0  0  0  0  0  0  0  0  0  0
   -4.3409    0.0165    0.0000 N   0  0  0  0  0  0  0  0  0  0  0  0
   -3.9284   -0.6979    0.0000 C   0  0  0  0  0  0  0  0  0  0  0  0
   -4.3409   -1.4124    0.0000 O   0  0  0  0  0  0  0  0  0  0  0  0
   -3.1034   -0.6979    0.0000 C   0  0  0  0  0  0  0  0  0  0  0  0
   -2.6909    0.0165    0.0000 C   0  0  0  0  0  0  0  0  0  0  0  0
   -1.8659    0.0165    0.0000 C   0  0  0  0  0  0  0  0  0  0  0  0
   -1.4534    0.7310    0.0000 F   0  0  0  0  0  0  0  0  0  0  0  0
   -1.4534   -0.6979    0.0000 C   0  0  0  0  0  0  0  0  0  0  0  0
   -0.6284   -0.6979    0.0000 N   0  0  0  0  0  0  0  0  0  0  0  0
   -0.1435   -1.3654    0.0000 N   0  0  0  0  0  0  0  0  0  0  0  0
    0.6411   -1.1104    0.0000 C   0  0  0  0  0  0  0  0  0  0  0  0
    0.6411   -0.2854    0.0000 N   0  0  0  0  0  0  0  0  0  0  0  0
   -0.1435   -0.0305    0.0000 C   0  0  0  0  0  0  0  0  0  0  0  0
   -0.3984    0.7541    0.0000 O   0  0  0  0  0  0  0  0  0  0  0  0
    1.3556    0.1271    0.0000 C   0  0  0  0  0  0  0  0  0  0  0  0
    2.0701   -0.2854    0.0000 C   0  0  0  0  0  0  0  0  0  0  0  0
    2.0701   -1.1104    0.0000 C   0  0  0  0  0  0  0  0  0  0  0  0
    1.3556   -1.5229    0.0000 C   0  0  0  0  0  0  0  0  0  0  0  0
   -1.8659   -1.4124    0.0000 C   0  0  0  0  0  0  0  0  0  0  0  0
   -2.6909   -1.4124    0.0000 C   0  0  0  0  0  0  0  0  0  0  0  0
   -3.1034   -2.1269    0.0000 O   0  0  0  0  0  0  0  0  0  0  0  0
   -2.6909   -2.8414    0.0000 C   0  0  0  0  0  0  0  0  0  0  0  0
   -1.8659   -2.8414    0.0000 C   0  0  0  0  0  0  0  0  0  0  0  0
   -3.1034   -3.5558    0.0000 C   0  0  0  0  0  0  0  0  0  0  0  0
   -3.8179   -3.1433    0.0000 F   0  0  0  0  0  0  0  0  0  0  0  0
   -2.3890   -3.9683    0.0000 F   0  0  0  0  0  0  0  0  0  0  0  0
   -3.5159   -4.2703    0.0000 F   0  0  0  0  0  0  0  0  0  0  0  0
  1  2  1  0  0  0  0
  2  3  4  0  0  0  0
  3  4  4  0  0  0  0
  4  5  4  0  0  0  0
  5  6  4  0  0  0  0
  6  7  1  0  0  0  0
  7  8  1  0  0  0  0
  7  9  1  0  0  0  0
  7 10  1  0  0  0  0
  6 11  4  0  0  0  0
  2 11  4  0  0  0  0
 11 12  1  0  0  0  0
 12 13  1  0  0  0  0
 13 14  2  0  0  0  0
 13 15  1  0  0  0  0
 15 16  4  0  0  0  0
 16 17  4  0  0  0  0
 17 18  1  0  0  0  0
 17 19  4  0  0  0  0
 19 20  1  0  0  0  0
 20 21  4  0  0  0  0
 21 22  4  0  0  0  0
 22 23  4  0  0  0  0
 23 24  4  0  0  0  0
 20 24  4  0  0  0  0
 24 25  2  0  0  0  0
 23 26  1  0  0  0  0
 26 27  1  0  0  0  0
 27 28  1  0  0  0  0
 28 29  1  0  0  0  0
 22 29  1  0  0  0  0
 19 30  4  0  0  0  0
 30 31  4  0  0  0  0
 15 31  4  0  0  0  0
 31 32  1  0  0  0  0
 32 33  1  0  0  0  0
 33 34  1  0  0  0  0
 33 35  1  0  0  0  0
 35 36  1  0  0  0  0
 35 37  1  0  0  0  0
 35 38  1  0  0  0  0
M  END
> <IC50(uM)>
0.005

> <Outcome>
1.0

> <BindingDB ID>
1020472

> <BindingDB MonomerID>
490420

> <BindingDB Ligand Name>
5-fluoro-N-[2-methyl-6-(trifluoromethyl)phenyl]-4-(3-oxo-5,6,7,8-tetrahydro[1,2,4]triazolo[4,3-a]pyridin-2(3H)-yl)-2-{[(2S)-1,1,1-trifluoropropan-2-yl]oxy}benzamide::US10968216, Example 88

> <Curation/DataSource>
US Patent

> <Article DOI>
?

> <PMID>
?

> <Patent Number>
US10968216

> <Authors>
Gradl, SN; Nguyen, D; Eis, K; Gunther, J; Stellfeld, T; Janzer, A; Christian, S; Mueller, T; Sheikh, SE; Zhou, HJ; Zhao, C; Sykes, DB; Ferrara, SJ; Liu, K; Herbert, SA; Merz, C; Niehues, M; Nising, CF; Schafer, M; Zimmermann, K; Knablein, J; Thede, K; Faupel, T

> <Link to Ligand in BindingDB>
http://www.bindingdb.org/bind/chemsearch/marvin/MolStructure.jsp?monomerid=490420

> <Link to Ligand-Target Pair in BindingDB>
http://www.bindingdb.org/jsp/dbsearch/PrimarySearch_ki.jsp?energyterm=kJ/mole&tag=r21&monomerid=490420&enzyme=Dihydroorotate+dehydrogenase&column=ki&startPg=0&Increment=50&submit=Search

> <PubChem CID>
134473949

> <PubChem SID>
447117147

$$$$

  Mrv2115 07222212352D          

 27 29  0  0  0  0            999 V2000
   -2.1434   -0.4125    0.0000 C   0  0  0  0  0  0  0  0  0  0  0  0
   -2.1434   -1.2375    0.0000 C   0  0  0  0  0  0  0  0  0  0  0  0
   -2.8579   -1.6500    0.0000 O   0  0  0  0  0  0  0  0  0  0  0  0
   -2.8579   -2.4750    0.0000 C   0  0  0  0  0  0  0  0  0  0  0  0
   -2.1434   -2.8875    0.0000 C   0  0  0  0  0  0  0  0  0  0  0  0
   -2.1434   -3.7125    0.0000 C   0  0  0  0  0  0  0  0  0  0  0  0
   -2.8579   -4.1250    0.0000 C   0  0  0  0  0  0  0  0  0  0  0  0
   -3.5724   -3.7125    0.0000 C   0  0  0  0  0  0  0  0  0  0  0  0
   -4.2868   -4.1250    0.0000 C   0  0  0  0  0  0  0  0  0  0  0  0
   -5.0013   -3.7125    0.0000 C   0  0  0  0  0  0  0  0  0  0  0  0
   -5.7158   -4.1250    0.0000 C   0  0  0  0  0  0  0  0  0  0  0  0
   -6.4302   -3.7125    0.0000 C   0  0  0  0  0  0  0  0  0  0  0  0
   -5.7158   -4.9500    0.0000 C   0  0  0  0  0  0  0  0  0  0  0  0
   -6.4302   -5.3625    0.0000 N   0  0  0  0  0  0  0  0  0  0  0  0
   -6.4302   -6.1875    0.0000 C   0  0  0  0  0  0  0  0  0  0  0  0
   -5.7158   -6.6000    0.0000 C   0  0  0  0  0  0  0  0  0  0  0  0
   -5.7158   -7.4250    0.0000 C   0  0  0  0  0  0  0  0  0  0  0  0
   -6.4302   -7.8375    0.0000 C   0  0  0  0  0  0  0  0  0  0  0  0
   -6.4302   -8.6625    0.0000 C   0  0  0  0  0  0  0  0  0  0  0  0
   -7.1447   -7.4250    0.0000 C   0  0  0  0  0  0  0  0  0  0  0  0
   -7.1447   -6.6000    0.0000 C   0  0  0  0  0  0  0  0  0  0  0  0
   -7.8592   -6.1875    0.0000 C   0  0  0  0  0  0  0  0  0  0  0  0
   -7.8592   -5.3625    0.0000 O   0  0  0  0  0  0  0  0  0  0  0  0
   -8.5737   -6.6000    0.0000 O   0  0  0  0  0  0  0  0  0  0  0  0
   -5.0013   -5.3625    0.0000 C   0  0  0  0  0  0  0  0  0  0  0  0
   -4.2868   -4.9500    0.0000 N   0  0  0  0  0  0  0  0  0  0  0  0
   -3.5724   -2.8875    0.0000 C   0  0  0  0  0  0  0  0  0  0  0  0
  1  2  1  0  0  0  0
  2  3  1  0  0  0  0
  3  4  1  0  0  0  0
  4  5  4  0  0  0  0
  5  6  4  0  0  0  0
  6  7  4  0  0  0  0
  7  8  4  0  0  0  0
  8  9  1  0  0  0  0
  9 10  4  0  0  0  0
 10 11  4  0  0  0  0
 11 12  1  0  0  0  0
 11 13  4  0  0  0  0
 13 14  1  0  0  0  0
 14 15  1  0  0  0  0
 15 16  4  0  0  0  0
 16 17  4  0  0  0  0
 17 18  4  0  0  0  0
 18 19  1  0  0  0  0
 18 20  4  0  0  0  0
 20 21  4  0  0  0  0
 15 21  4  0  0  0  0
 21 22  1  0  0  0  0
 22 23  2  0  0  0  0
 22 24  1  0  0  0  0
 13 25  4  0  0  0  0
 25 26  4  0  0  0  0
  9 26  4  0  0  0  0
  8 27  4  0  0  0  0
  4 27  4  0  0  0  0
M  END
> <IC50(uM)>
0.078

> <Outcome>
1.0

> <BindingDB ID>
219992

> <BindingDB MonomerID>
102462

> <BindingDB Ligand Name>
US8536165, 44

> <Curation/DataSource>
US Patent

> <Article DOI>
?

> <PMID>
?

> <Patent Number>
US8536165

> <Authors>
Castro Palomino Laria, JC; Terricabras Belart, E; Erra Sola, M; Navarro Romero, E; Fonquerna Pou, S; Cardus Figueras, A; Lozoya Toribio, ME

> <Link to Ligand in BindingDB>
http://www.bindingdb.org/bind/chemsearch/marvin/MolStructure.jsp?monomerid=102462

> <Link to Ligand-Target Pair in BindingDB>
http://www.bindingdb.org/jsp/dbsearch/PrimarySearch_ki.jsp?energyterm=kJ/mole&tag=r21&monomerid=102462&enzyme=Dihydroorotate+dehydrogenase&column=ki&startPg=0&Increment=50&submit=Search

> <PubChem CID>
25187282

> <PubChem SID>
172097753

$$$$

  Mrv2115 07222212352D          

 33 35  0  0  0  0            999 V2000
    1.4289   -0.0000    0.0000 C   0  0  0  0  0  0  0  0  0  0  0  0
    0.7145   -0.4125    0.0000 N   0  0  0  0  0  0  0  0  0  0  0  0
    0.0000    0.0000    0.0000 N   0  0  0  0  0  0  0  0  0  0  0  0
    0.0000    0.8250    0.0000 C   0  0  0  0  0  0  0  0  0  0  0  0
   -0.7145    1.2375    0.0000 C   0  0  0  0  0  0  0  0  0  0  0  0
   -1.4289    0.8250    0.0000 C   0  0  0  0  0  0  0  0  0  0  0  0
   -2.1434    1.2375    0.0000 C   0  0  0  0  0  0  0  0  0  0  0  0
   -2.1434    2.0625    0.0000 C   0  0  0  0  0  0  0  0  0  0  0  0
   -1.4289    2.4750    0.0000 C   0  0  0  0  0  0  0  0  0  0  0  0
   -0.7145    2.0625    0.0000 C   0  0  0  0  0  0  0  0  0  0  0  0
    0.0000    2.4750    0.0000 C   0  0  0  0  0  0  0  0  0  0  0  0
    0.7145    2.0625    0.0000 O   0  0  0  0  0  0  0  0  0  0  0  0
    0.0000    3.3000    0.0000 O   0  0  0  0  0  0  0  0  0  0  0  0
    0.7145    3.7125    0.0000 C   0  0  0  0  0  0  0  0  0  0  0  0
    0.7145    4.5375    0.0000 O   0  0  0  0  0  0  0  0  0  0  0  0
    0.0000    4.9500    0.0000 C   0  0  0  0  0  0  0  0  0  0  0  0
    0.0000    5.7750    0.0000 O   0  0  0  0  0  0  0  0  0  0  0  0
   -0.7145    4.5375    0.0000 C   0  0  0  0  0  0  0  0  0  0  0  0
   -1.4289    4.1250    0.0000 C   0  0  0  0  0  0  0  0  0  0  0  0
   -0.3020    3.8230    0.0000 C   0  0  0  0  0  0  0  0  0  0  0  0
   -1.1270    5.2520    0.0000 C   0  0  0  0  0  0  0  0  0  0  0  0
    0.7145   -1.2375    0.0000 C   0  0  0  0  0  0  0  0  0  0  0  0
    1.3819   -1.7224    0.0000 N   0  0  0  0  0  0  0  0  0  0  0  0
    1.1270   -2.5070    0.0000 C   0  0  0  0  0  0  0  0  0  0  0  0
    1.6119   -3.1745    0.0000 C   0  0  0  0  0  0  0  0  0  0  0  0
    2.4324   -3.0882    0.0000 C   0  0  0  0  0  0  0  0  0  0  0  0
    2.9173   -3.7557    0.0000 C   0  0  0  0  0  0  0  0  0  0  0  0
    2.5817   -4.5094    0.0000 C   0  0  0  0  0  0  0  0  0  0  0  0
    1.7613   -4.5956    0.0000 C   0  0  0  0  0  0  0  0  0  0  0  0
    1.2763   -3.9282    0.0000 C   0  0  0  0  0  0  0  0  0  0  0  0
    0.4559   -4.0144    0.0000 Cl  0  0  0  0  0  0  0  0  0  0  0  0
    0.3020   -2.5070    0.0000 C   0  0  0  0  0  0  0  0  0  0  0  0
    0.0470   -1.7224    0.0000 S   0  0  0  0  0  0  0  0  0  0  0  0
  1  2  1  0  0  0  0
  2  3  1  0  0  0  0
  3  4  2  0  0  0  0
  4  5  1  0  0  0  0
  5  6  4  0  0  0  0
  6  7  4  0  0  0  0
  7  8  4  0  0  0  0
  8  9  4  0  0  0  0
  9 10  4  0  0  0  0
  5 10  4  0  0  0  0
 10 11  1  0  0  0  0
 11 12  2  0  0  0  0
 11 13  1  0  0  0  0
 13 14  1  0  0  0  0
 14 15  1  0  0  0  0
 15 16  1  0  0  0  0
 16 17  2  0  0  0  0
 16 18  1  0  0  0  0
 18 19  1  0  0  0  0
 18 20  1  0  0  0  0
 18 21  1  0  0  0  0
  2 22  1  0  0  0  0
 22 23  4  0  0  0  0
 23 24  4  0  0  0  0
 24 25  1  0  0  0  0
 25 26  4  0  0  0  0
 26 27  4  0  0  0  0
 27 28  4  0  0  0  0
 28 29  4  0  0  0  0
 29 30  4  0  0  0  0
 25 30  4  0  0  0  0
 30 31  1  0  0  0  0
 24 32  4  0  0  0  0
 32 33  4  0  0  0  0
 22 33  4  0  0  0  0
M  END
> <IC50(uM)>
50.0

> <Outcome>
0.0

> <BindingDB ID>
1001157

> <BindingDB MonomerID>
482843

> <BindingDB Ligand Name>
US10919869, No.  B10

> <Curation/DataSource>
US Patent

> <Article DOI>
?

> <PMID>
?

> <Patent Number>
US10919869

> <Authors>
Li, H; Xu, Y; Wang, R; Zhao, Z; Song, W; Xu, L

> <Link to Ligand in BindingDB>
http://www.bindingdb.org/bind/chemsearch/marvin/MolStructure.jsp?monomerid=482843

> <Link to Ligand-Target Pair in BindingDB>
http://www.bindingdb.org/jsp/dbsearch/PrimarySearch_ki.jsp?energyterm=kJ/mole&tag=r21&monomerid=482843&enzyme=Dihydroorotate+dehydrogenase&column=ki&startPg=0&Increment=50&submit=Search

> <PubChem CID>
132157926

> <PubChem SID>
443551983

$$$$

  Mrv2115 07222212352D          

 34 37  0  0  0  0            999 V2000
   -1.8212    2.1599    0.0000 C   0  0  0  0  0  0  0  0  0  0  0  0
   -1.4087    1.4455    0.0000 C   0  0  0  0  0  0  0  0  0  0  0  0
   -1.8212    0.7310    0.0000 O   0  0  0  0  0  0  0  0  0  0  0  0
   -1.4087    0.0165    0.0000 C   0  0  0  0  0  0  0  0  0  0  0  0
   -0.5837    0.0165    0.0000 C   0  0  0  0  0  0  0  0  0  0  0  0
   -0.1712   -0.6979    0.0000 C   0  0  0  0  0  0  0  0  0  0  0  0
    0.6538   -0.6979    0.0000 N   0  0  0  0  0  0  0  0  0  0  0  0
    1.1387   -0.0305    0.0000 N   0  0  0  0  0  0  0  0  0  0  0  0
    1.9233   -0.2854    0.0000 C   0  0  0  0  0  0  0  0  0  0  0  0
    2.6378    0.1271    0.0000 C   0  0  0  0  0  0  0  0  0  0  0  0
    3.3523   -0.2854    0.0000 C   0  0  0  0  0  0  0  0  0  0  0  0
    3.3523   -1.1104    0.0000 C   0  0  0  0  0  0  0  0  0  0  0  0
    2.6378   -1.5229    0.0000 C   0  0  0  0  0  0  0  0  0  0  0  0
    1.9233   -1.1104    0.0000 N   0  0  0  0  0  0  0  0  0  0  0  0
    1.1387   -1.3654    0.0000 C   0  0  0  0  0  0  0  0  0  0  0  0
    0.8838   -2.1500    0.0000 O   0  0  0  0  0  0  0  0  0  0  0  0
   -0.5837   -1.4124    0.0000 C   0  0  0  0  0  0  0  0  0  0  0  0
   -0.1712   -2.1269    0.0000 F   0  0  0  0  0  0  0  0  0  0  0  0
   -1.4087   -1.4124    0.0000 C   0  0  0  0  0  0  0  0  0  0  0  0
   -1.8212   -0.6979    0.0000 C   0  0  0  0  0  0  0  0  0  0  0  0
   -2.6462   -0.6979    0.0000 C   0  0  0  0  0  0  0  0  0  0  0  0
   -3.0587    0.0165    0.0000 O   0  0  0  0  0  0  0  0  0  0  0  0
   -3.0587   -1.4124    0.0000 N   0  0  0  0  0  0  0  0  0  0  0  0
   -3.8837   -1.4124    0.0000 C   0  0  0  0  0  0  0  0  0  0  0  0
   -4.2962   -2.1269    0.0000 C   0  0  0  0  0  0  0  0  0  0  0  0
   -5.1212   -2.1269    0.0000 C   0  0  0  0  0  0  0  0  0  0  0  0
   -5.5337   -1.4124    0.0000 C   0  0  0  0  0  0  0  0  0  0  0  0
   -5.1212   -0.6979    0.0000 C   0  0  0  0  0  0  0  0  0  0  0  0
   -4.2962   -0.6979    0.0000 C   0  0  0  0  0  0  0  0  0  0  0  0
   -3.8837    0.0165    0.0000 F   0  0  0  0  0  0  0  0  0  0  0  0
   -0.5837    1.4455    0.0000 C   0  0  0  0  0  0  0  0  0  0  0  0
   -0.5837    0.6205    0.0000 F   0  0  0  0  0  0  0  0  0  0  0  0
   -0.5837    2.2705    0.0000 F   0  0  0  0  0  0  0  0  0  0  0  0
    0.2413    1.4455    0.0000 F   0  0  0  0  0  0  0  0  0  0  0  0
  1  2  1  0  0  0  0
  2  3  1  0  0  0  0
  3  4  1  0  0  0  0
  4  5  4  0  0  0  0
  5  6  4  0  0  0  0
  6  7  1  0  0  0  0
  7  8  4  0  0  0  0
  8  9  4  0  0  0  0
  9 10  4  0  0  0  0
 10 11  4  0  0  0  0
 11 12  4  0  0  0  0
 12 13  4  0  0  0  0
 13 14  4  0  0  0  0
  9 14  4  0  0  0  0
 14 15  4  0  0  0  0
  7 15  4  0  0  0  0
 15 16  2  0  0  0  0
  6 17  4  0  0  0  0
 17 18  1  0  0  0  0
 17 19  4  0  0  0  0
 19 20  4  0  0  0  0
  4 20  4  0  0  0  0
 20 21  1  0  0  0  0
 21 22  2  0  0  0  0
 21 23  1  0  0  0  0
 23 24  1  0  0  0  0
 24 25  4  0  0  0  0
 25 26  4  0  0  0  0
 26 27  4  0  0  0  0
 27 28  4  0  0  0  0
 28 29  4  0  0  0  0
 24 29  4  0  0  0  0
 29 30  1  0  0  0  0
  2 31  1  0  0  0  0
 31 32  1  0  0  0  0
 31 33  1  0  0  0  0
 31 34  1  0  0  0  0
M  END
> <IC50(uM)>
0.35

> <Outcome>
1.0

> <BindingDB ID>
1020607

> <BindingDB MonomerID>
490546

> <BindingDB Ligand Name>
5-fluoro-N-(2-fluorophenyl)-4-(3-oxo[1,2,4]triazolo[4,3-a]pyridin-2(3H)-yl)-2-{[(2S)-1,1,1-trifluoropropan-2-yl]oxy}benzamide::US10968216, Example 214

> <Curation/DataSource>
US Patent

> <Article DOI>
?

> <PMID>
?

> <Patent Number>
US10968216

> <Authors>
Gradl, SN; Nguyen, D; Eis, K; Gunther, J; Stellfeld, T; Janzer, A; Christian, S; Mueller, T; Sheikh, SE; Zhou, HJ; Zhao, C; Sykes, DB; Ferrara, SJ; Liu, K; Herbert, SA; Merz, C; Niehues, M; Nising, CF; Schafer, M; Zimmermann, K; Knablein, J; Thede, K; Faupel, T

> <Link to Ligand in BindingDB>
http://www.bindingdb.org/bind/chemsearch/marvin/MolStructure.jsp?monomerid=490546

> <Link to Ligand-Target Pair in BindingDB>
http://www.bindingdb.org/jsp/dbsearch/PrimarySearch_ki.jsp?energyterm=kJ/mole&tag=r21&monomerid=490546&enzyme=Dihydroorotate+dehydrogenase&column=ki&startPg=0&Increment=50&submit=Search

> <PubChem CID>
134474503

> <PubChem SID>
447117272

$$$$

  Mrv2115 07222212352D          

 26 29  0  0  0  0            999 V2000
    3.9934    5.7750    0.0000 C   0  0  0  0  0  0  0  0  0  0  0  0
    3.9934    4.9500    0.0000 C   0  0  0  0  0  0  0  0  0  0  0  0
    4.7079    4.5375    0.0000 C   0  0  0  0  0  0  0  0  0  0  0  0
    4.7079    3.7125    0.0000 N   0  0  0  0  0  0  0  0  0  0  0  0
    3.9934    3.3000    0.0000 C   0  0  0  0  0  0  0  0  0  0  0  0
    3.9934    2.4750    0.0000 C   0  0  0  0  0  0  0  0  0  0  0  0
    4.7079    2.0625    0.0000 O   0  0  0  0  0  0  0  0  0  0  0  0
    3.2789    2.0625    0.0000 N   0  0  0  0  0  0  0  0  0  0  0  0
    3.2789    1.2375    0.0000 C   0  0  0  0  0  0  0  0  0  0  0  0
    3.9934    0.8250    0.0000 C   0  0  0  0  0  0  0  0  0  0  0  0
    3.9934    0.0000    0.0000 C   0  0  0  0  0  0  0  0  0  0  0  0
    3.2789   -0.4125    0.0000 C   0  0  0  0  0  0  0  0  0  0  0  0
    2.5645    0.0000    0.0000 C   0  0  0  0  0  0  0  0  0  0  0  0
    2.5645    0.8250    0.0000 C   0  0  0  0  0  0  0  0  0  0  0  0
    1.7798    1.0799    0.0000 C   0  0  0  0  0  0  0  0  0  0  0  0
    1.2949    0.4125    0.0000 N   0  0  0  0  0  0  0  0  0  0  0  0
    1.7798   -0.2549    0.0000 N   0  0  0  0  0  0  0  0  0  0  0  0
    1.5249   -1.0396    0.0000 C   0  0  0  0  0  0  0  0  0  0  0  0
    2.0769   -1.6527    0.0000 C   0  0  0  0  0  0  0  0  0  0  0  0
    1.8220   -2.4373    0.0000 C   0  0  0  0  0  0  0  0  0  0  0  0
    1.0150   -2.6088    0.0000 C   0  0  0  0  0  0  0  0  0  0  0  0
    0.4630   -1.9957    0.0000 C   0  0  0  0  0  0  0  0  0  0  0  0
    0.7179   -1.2111    0.0000 C   0  0  0  0  0  0  0  0  0  0  0  0
    0.1659   -0.5980    0.0000 F   0  0  0  0  0  0  0  0  0  0  0  0
    3.2789    3.7125    0.0000 C   0  0  0  0  0  0  0  0  0  0  0  0
    3.2789    4.5375    0.0000 N   0  0  0  0  0  0  0  0  0  0  0  0
  1  2  1  0  0  0  0
  2  3  4  0  0  0  0
  3  4  4  0  0  0  0
  4  5  4  0  0  0  0
  5  6  1  0  0  0  0
  6  7  2  0  0  0  0
  6  8  1  0  0  0  0
  8  9  1  0  0  0  0
  9 10  1  0  0  0  0
 10 11  1  0  0  0  0
 11 12  1  0  0  0  0
 12 13  1  0  0  0  0
 13 14  4  0  0  0  0
  9 14  1  0  0  0  0
 14 15  4  0  0  0  0
 15 16  4  0  0  0  0
 16 17  4  0  0  0  0
 13 17  4  0  0  0  0
 17 18  1  0  0  0  0
 18 19  4  0  0  0  0
 19 20  4  0  0  0  0
 20 21  4  0  0  0  0
 21 22  4  0  0  0  0
 22 23  4  0  0  0  0
 18 23  4  0  0  0  0
 23 24  1  0  0  0  0
  5 25  4  0  0  0  0
 25 26  4  0  0  0  0
  2 26  4  0  0  0  0
M  END
> <IC50(uM)>
0.735

> <Outcome>
1.0

> <BindingDB ID>
993083

> <BindingDB MonomerID>
477585

> <BindingDB Ligand Name>
N-[(4R*)-1-(2-fluorophenyl)-4,5,6,7-tetrahydro-1H-indazol-4-yl]-5-methylpyrazine-2-carboxamide (* putative isomer)::US10889564, Example 15

> <Curation/DataSource>
US Patent

> <Article DOI>
?

> <PMID>
?

> <Patent Number>
US10889564

> <Authors>
Lain, S; Drummond, C; Leeuwen, IV; Haraldsson, M; Johansson, L; Sandberg, L; Yngve, U

> <Link to Ligand in BindingDB>
http://www.bindingdb.org/bind/chemsearch/marvin/MolStructure.jsp?monomerid=477585

> <Link to Ligand-Target Pair in BindingDB>
http://www.bindingdb.org/jsp/dbsearch/PrimarySearch_ki.jsp?energyterm=kJ/mole&tag=r21&monomerid=477585&enzyme=Dihydroorotate+dehydrogenase&column=ki&startPg=0&Increment=50&submit=Search

> <PubChem CID>
129104679

> <PubChem SID>
442137202

$$$$

  Mrv2115 07222212352D          

 19 20  0  0  0  0            999 V2000
    2.1434   -1.2375    0.0000 C   0  0  0  0  0  0  0  0  0  0  0  0
    1.4289   -1.6500    0.0000 C   0  0  0  0  0  0  0  0  0  0  0  0
    1.4289   -2.4750    0.0000 C   0  0  0  0  0  0  0  0  0  0  0  0
    2.0964   -2.9599    0.0000 O   0  0  0  0  0  0  0  0  0  0  0  0
    1.8414   -3.7445    0.0000 N   0  0  0  0  0  0  0  0  0  0  0  0
    1.0164   -3.7445    0.0000 C   0  0  0  0  0  0  0  0  0  0  0  0
    0.7615   -2.9599    0.0000 C   0  0  0  0  0  0  0  0  0  0  0  0
   -0.0231   -2.7050    0.0000 C   0  0  0  0  0  0  0  0  0  0  0  0
   -0.1946   -1.8980    0.0000 S   0  0  0  0  0  0  0  0  0  0  0  0
   -0.6362   -3.2570    0.0000 N   0  0  0  0  0  0  0  0  0  0  0  0
   -1.4208   -3.0021    0.0000 C   0  0  0  0  0  0  0  0  0  0  0  0
   -2.0339   -3.5541    0.0000 C   0  0  0  0  0  0  0  0  0  0  0  0
   -2.8186   -3.2992    0.0000 C   0  0  0  0  0  0  0  0  0  0  0  0
   -2.9901   -2.4922    0.0000 C   0  0  0  0  0  0  0  0  0  0  0  0
   -3.7747   -2.2373    0.0000 N   0  0  0  0  0  0  0  0  0  0  0  0
   -4.3878   -2.7893    0.0000 C   0  0  0  0  0  0  0  0  0  0  0  0
   -3.9462   -1.4303    0.0000 C   0  0  0  0  0  0  0  0  0  0  0  0
   -2.3770   -1.9402    0.0000 C   0  0  0  0  0  0  0  0  0  0  0  0
   -1.5924   -2.1951    0.0000 C   0  0  0  0  0  0  0  0  0  0  0  0
  1  2  1  0  0  0  0
  2  3  1  0  0  0  0
  3  4  4  0  0  0  0
  4  5  4  0  0  0  0
  5  6  4  0  0  0  0
  6  7  4  0  0  0  0
  3  7  4  0  0  0  0
  7  8  1  0  0  0  0
  8  9  2  0  0  0  0
  8 10  1  0  0  0  0
 10 11  1  0  0  0  0
 11 12  4  0  0  0  0
 12 13  4  0  0  0  0
 13 14  4  0  0  0  0
 14 15  1  0  0  0  0
 15 16  1  0  0  0  0
 15 17  1  0  0  0  0
 14 18  4  0  0  0  0
 18 19  4  0  0  0  0
 11 19  4  0  0  0  0
M  END
> <IC50(uM)>
40.4

> <Outcome>
0.0

> <BindingDB ID>
50123297

> <BindingDB MonomerID>
50071389

> <BindingDB Ligand Name>
5-Ethyl-isoxazole-4-carbothioic acid (4-dimethylamino-phenyl)-amide::CHEMBL419631

> <Curation/DataSource>
ChEMBL

> <Article DOI>
10.1016/s0960-894x(98)00365-5

> <PMID>
9873513

> <Patent Number>
?

> <Authors>
Albert, R; Knecht, H; Andersen, E; Hungerford, V; Schreier, MH; Papageorgiou, C

> <Link to Ligand in BindingDB>
http://www.bindingdb.org/bind/chemsearch/marvin/MolStructure.jsp?monomerid=50071389

> <Link to Ligand-Target Pair in BindingDB>
http://www.bindingdb.org/jsp/dbsearch/PrimarySearch_ki.jsp?energyterm=kJ/mole&tag=r21&monomerid=50071389&enzyme=Dihydroorotate+dehydrogenase&column=ki&startPg=0&Increment=50&submit=Search

> <PubChem CID>
44310311

> <PubChem SID>
103965143

$$$$

  Mrv2115 07222212352D          

 34 37  0  0  0  0            999 V2000
   -2.8579   -1.6500    0.0000 C   0  0  0  0  0  0  0  0  0  0  0  0
   -2.1434   -1.2375    0.0000 O   0  0  0  0  0  0  0  0  0  0  0  0
   -1.4289   -1.6500    0.0000 C   0  0  0  0  0  0  0  0  0  0  0  0
   -0.7145   -1.2375    0.0000 C   0  0  0  0  0  0  0  0  0  0  0  0
    0.0000   -1.6500    0.0000 C   0  0  0  0  0  0  0  0  0  0  0  0
    0.7145   -1.2375    0.0000 N   0  0  0  0  0  0  0  0  0  0  0  0
    0.7145   -0.4125    0.0000 C   0  0  0  0  0  0  0  0  0  0  0  0
    1.4289    0.0000    0.0000 C   0  0  0  0  0  0  0  0  0  0  0  0
    1.4289    0.8250    0.0000 C   0  0  0  0  0  0  0  0  0  0  0  0
    2.1434    1.2375    0.0000 C   0  0  0  0  0  0  0  0  0  0  0  0
    0.7145    1.2375    0.0000 C   0  0  0  0  0  0  0  0  0  0  0  0
    2.1434   -0.4125    0.0000 C   0  0  0  0  0  0  0  0  0  0  0  0
    2.8579    0.0000    0.0000 C   0  0  0  0  0  0  0  0  0  0  0  0
    3.5724   -0.4125    0.0000 C   0  0  0  0  0  0  0  0  0  0  0  0
    4.2868   -0.0000    0.0000 C   0  0  0  0  0  0  0  0  0  0  0  0
    4.3731    0.8205    0.0000 N   0  0  0  0  0  0  0  0  0  0  0  0
    5.1800    0.9920    0.0000 C   0  0  0  0  0  0  0  0  0  0  0  0
    5.5156    1.7457    0.0000 C   0  0  0  0  0  0  0  0  0  0  0  0
    5.8511    2.4994    0.0000 C   0  0  0  0  0  0  0  0  0  0  0  0
    6.2693    1.4101    0.0000 C   0  0  0  0  0  0  0  0  0  0  0  0
    4.7619    2.0812    0.0000 O   0  0  0  0  0  0  0  0  0  0  0  0
    5.5925    0.2775    0.0000 N   0  0  0  0  0  0  0  0  0  0  0  0
    6.4130    0.1913    0.0000 C   0  0  0  0  0  0  0  0  0  0  0  0
    5.0405   -0.3356    0.0000 N   0  0  0  0  0  0  0  0  0  0  0  0
    3.5724   -1.2375    0.0000 C   0  0  0  0  0  0  0  0  0  0  0  0
    4.2868   -1.6500    0.0000 F   0  0  0  0  0  0  0  0  0  0  0  0
    2.8579   -1.6500    0.0000 C   0  0  0  0  0  0  0  0  0  0  0  0
    2.1434   -1.2375    0.0000 C   0  0  0  0  0  0  0  0  0  0  0  0
    1.4289   -1.6500    0.0000 C   0  0  0  0  0  0  0  0  0  0  0  0
    1.4289   -2.4750    0.0000 O   0  0  0  0  0  0  0  0  0  0  0  0
    0.0000   -2.4750    0.0000 C   0  0  0  0  0  0  0  0  0  0  0  0
    0.7145   -2.8875    0.0000 C   0  0  0  0  0  0  0  0  0  0  0  0
   -0.7145   -2.8875    0.0000 C   0  0  0  0  0  0  0  0  0  0  0  0
   -1.4289   -2.4750    0.0000 N   0  0  0  0  0  0  0  0  0  0  0  0
  1  2  1  0  0  0  0
  2  3  1  0  0  0  0
  3  4  4  0  0  0  0
  4  5  4  0  0  0  0
  5  6  1  0  0  0  0
  6  7  4  0  0  0  0
  7  8  4  0  0  0  0
  8  9  1  0  0  0  0
  9 10  1  0  0  0  0
  9 11  1  0  0  0  0
  8 12  4  0  0  0  0
 12 13  4  0  0  0  0
 13 14  4  0  0  0  0
 14 15  1  0  0  0  0
 15 16  4  0  0  0  0
 16 17  4  0  0  0  0
 17 18  1  0  0  0  0
 18 19  1  0  0  0  0
 18 20  1  0  0  0  0
 18 21  1  0  0  0  0
 17 22  4  0  0  0  0
 22 23  1  0  0  0  0
 22 24  4  0  0  0  0
 15 24  4  0  0  0  0
 14 25  4  0  0  0  0
 25 26  1  0  0  0  0
 25 27  4  0  0  0  0
 27 28  4  0  0  0  0
 12 28  4  0  0  0  0
 28 29  4  0  0  0  0
  6 29  4  0  0  0  0
 29 30  2  0  0  0  0
  5 31  4  0  0  0  0
 31 32  1  0  0  0  0
 31 33  4  0  0  0  0
 33 34  4  0  0  0  0
  3 34  4  0  0  0  0
M  END
> <IC50(uM)>
0.0012

> <Outcome>
1.0

> <BindingDB ID>
1121388

> <BindingDB MonomerID>
530454

> <BindingDB Ligand Name>
7-Fluoro-6-(5-(2-hydroxypropan-2-yl)-1-methyl-1H-1,2,4-triazol-3-yl)-4-isopropyl- 2-(2-methoxy-5-methylpyridin-4-yl)isoquinolin-1(2H)-one.::WO2022070068, Example 26

> <Curation/DataSource>
Curated from the literature by BindingDB

> <Article DOI>
?

> <PMID>
WO2022070068

> <Patent Number>
?

> <Authors>
Lindsey, D; Scott, K; Zhuming, Z

> <Link to Ligand in BindingDB>
http://www.bindingdb.org/bind/chemsearch/marvin/MolStructure.jsp?monomerid=530454

> <Link to Ligand-Target Pair in BindingDB>
http://www.bindingdb.org/jsp/dbsearch/PrimarySearch_ki.jsp?energyterm=kJ/mole&tag=r21&monomerid=530454&enzyme=Dihydroorotate+dehydrogenase&column=ki&startPg=0&Increment=50&submit=Search

> <PubChem CID>
?

> <PubChem SID>
?

$$$$

  Mrv2115 07222212352D          

 25 28  0  0  0  0            999 V2000
   -0.1712   -0.6979    0.0000 C   0  0  0  0  0  0  0  0  0  0  0  0
    0.6538   -0.6979    0.0000 N   0  0  0  0  0  0  0  0  0  0  0  0
    1.1387   -0.0305    0.0000 N   0  0  0  0  0  0  0  0  0  0  0  0
    1.9233   -0.2854    0.0000 C   0  0  0  0  0  0  0  0  0  0  0  0
    2.6378    0.1271    0.0000 C   0  0  0  0  0  0  0  0  0  0  0  0
    3.3523   -0.2854    0.0000 C   0  0  0  0  0  0  0  0  0  0  0  0
    4.0668    0.1271    0.0000 C   0  0  0  0  0  0  0  0  0  0  0  0
    4.0668    0.9521    0.0000 C   0  0  0  0  0  0  0  0  0  0  0  0
    4.7812    1.3646    0.0000 C   0  0  0  0  0  0  0  0  0  0  0  0
    5.4957    0.9521    0.0000 C   0  0  0  0  0  0  0  0  0  0  0  0
    6.2102    1.3646    0.0000 C   0  0  0  0  0  0  0  0  0  0  0  0
    6.2102    2.1896    0.0000 C   0  0  0  0  0  0  0  0  0  0  0  0
    6.9246    2.6021    0.0000 C   0  0  0  0  0  0  0  0  0  0  0  0
    7.6391    2.1896    0.0000 C   0  0  0  0  0  0  0  0  0  0  0  0
    7.6391    1.3646    0.0000 C   0  0  0  0  0  0  0  0  0  0  0  0
    6.9246    0.9521    0.0000 C   0  0  0  0  0  0  0  0  0  0  0  0
    5.4957    0.1271    0.0000 C   0  0  0  0  0  0  0  0  0  0  0  0
    4.7812   -0.2854    0.0000 C   0  0  0  0  0  0  0  0  0  0  0  0
    3.3523   -1.1104    0.0000 C   0  0  0  0  0  0  0  0  0  0  0  0
    2.6378   -1.5229    0.0000 C   0  0  0  0  0  0  0  0  0  0  0  0
    2.6378   -2.3479    0.0000 C   0  0  0  0  0  0  0  0  0  0  0  0
    1.9233   -2.7604    0.0000 O   0  0  0  0  0  0  0  0  0  0  0  0
    3.3523   -2.7604    0.0000 O   0  0  0  0  0  0  0  0  0  0  0  0
    1.9233   -1.1104    0.0000 C   0  0  0  0  0  0  0  0  0  0  0  0
    1.1387   -1.3654    0.0000 N   0  0  0  0  0  0  0  0  0  0  0  0
  1  2  1  0  0  0  0
  2  3  4  0  0  0  0
  3  4  4  0  0  0  0
  4  5  4  0  0  0  0
  5  6  4  0  0  0  0
  6  7  1  0  0  0  0
  7  8  4  0  0  0  0
  8  9  4  0  0  0  0
  9 10  4  0  0  0  0
 10 11  1  0  0  0  0
 11 12  4  0  0  0  0
 12 13  4  0  0  0  0
 13 14  4  0  0  0  0
 14 15  4  0  0  0  0
 15 16  4  0  0  0  0
 11 16  4  0  0  0  0
 10 17  4  0  0  0  0
 17 18  4  0  0  0  0
  7 18  4  0  0  0  0
  6 19  4  0  0  0  0
 19 20  4  0  0  0  0
 20 21  1  0  0  0  0
 21 22  2  0  0  0  0
 21 23  1  0  0  0  0
 20 24  4  0  0  0  0
  4 24  4  0  0  0  0
 24 25  4  0  0  0  0
  2 25  4  0  0  0  0
M  END
> <IC50(uM)>
0.55

> <Outcome>
1.0

> <BindingDB ID>
1100165

> <BindingDB MonomerID>
520624

> <BindingDB Ligand Name>
6-([1,1'-biphenyl]-4-yl)-2-methyl-2H-benzo[d][1,2,3]triazole-4-carboxylic acid;::US11147801, Compound 4

> <Curation/DataSource>
US Patent

> <Article DOI>
?

> <PMID>
?

> <Patent Number>
US11147801

> <Authors>
Nellore, K; Hosahalli, S

> <Link to Ligand in BindingDB>
http://www.bindingdb.org/bind/chemsearch/marvin/MolStructure.jsp?monomerid=520624

> <Link to Ligand-Target Pair in BindingDB>
http://www.bindingdb.org/jsp/dbsearch/PrimarySearch_ki.jsp?energyterm=kJ/mole&tag=r21&monomerid=520624&enzyme=Dihydroorotate+dehydrogenase&column=ki&startPg=0&Increment=50&submit=Search

> <PubChem CID>
?

> <PubChem SID>
?

$$$$

  Mrv2115 07222212352D          

 30 34  0  0  0  0            999 V2000
   -6.4430    4.4963    0.0000 O   0  0  0  0  0  0  0  0  0  0  0  0
   -5.9581    3.8288    0.0000 C   0  0  0  0  0  0  0  0  0  0  0  0
   -6.2936    3.0751    0.0000 O   0  0  0  0  0  0  0  0  0  0  0  0
   -5.1376    3.9151    0.0000 C   0  0  0  0  0  0  0  0  0  0  0  0
   -4.8020    4.6687    0.0000 C   0  0  0  0  0  0  0  0  0  0  0  0
   -3.9816    4.7550    0.0000 C   0  0  0  0  0  0  0  0  0  0  0  0
   -3.4966    4.0875    0.0000 C   0  0  0  0  0  0  0  0  0  0  0  0
   -3.8322    3.3339    0.0000 C   0  0  0  0  0  0  0  0  0  0  0  0
   -3.3473    2.6664    0.0000 N   0  0  0  0  0  0  0  0  0  0  0  0
   -3.6022    1.8818    0.0000 N   0  0  0  0  0  0  0  0  0  0  0  0
   -2.9348    1.3969    0.0000 C   0  0  0  0  0  0  0  0  0  0  0  0
   -2.2673    1.8818    0.0000 C   0  0  0  0  0  0  0  0  0  0  0  0
   -2.5223    2.6664    0.0000 C   0  0  0  0  0  0  0  0  0  0  0  0
   -1.9702    3.2795    0.0000 C   0  0  0  0  0  0  0  0  0  0  0  0
   -1.1633    3.1080    0.0000 C   0  0  0  0  0  0  0  0  0  0  0  0
   -0.9083    2.3234    0.0000 C   0  0  0  0  0  0  0  0  0  0  0  0
   -1.4604    1.7103    0.0000 C   0  0  0  0  0  0  0  0  0  0  0  0
   -1.2054    0.9256    0.0000 N   0  0  0  0  0  0  0  0  0  0  0  0
   -0.3984    0.7541    0.0000 C   0  0  0  0  0  0  0  0  0  0  0  0
    0.1536    1.3672    0.0000 O   0  0  0  0  0  0  0  0  0  0  0  0
   -0.1435   -0.0305    0.0000 C   0  0  0  0  0  0  0  0  0  0  0  0
   -0.6284   -0.6979    0.0000 N   0  0  0  0  0  0  0  0  0  0  0  0
   -0.1435   -1.3654    0.0000 O   0  0  0  0  0  0  0  0  0  0  0  0
    0.6411   -1.1104    0.0000 C   0  0  0  0  0  0  0  0  0  0  0  0
    0.6411   -0.2854    0.0000 C   0  0  0  0  0  0  0  0  0  0  0  0
    1.3556    0.1271    0.0000 C   0  0  0  0  0  0  0  0  0  0  0  0
    2.0701   -0.2854    0.0000 C   0  0  0  0  0  0  0  0  0  0  0  0
    2.0701   -1.1104    0.0000 C   0  0  0  0  0  0  0  0  0  0  0  0
    1.3556   -1.5229    0.0000 C   0  0  0  0  0  0  0  0  0  0  0  0
   -4.6527    3.2476    0.0000 C   0  0  0  0  0  0  0  0  0  0  0  0
  1  2  2  0  0  0  0
  2  3  1  0  0  0  0
  2  4  1  0  0  0  0
  4  5  4  0  0  0  0
  5  6  4  0  0  0  0
  6  7  4  0  0  0  0
  7  8  4  0  0  0  0
  8  9  1  0  0  0  0
  9 10  4  0  0  0  0
 10 11  4  0  0  0  0
 11 12  4  0  0  0  0
 12 13  4  0  0  0  0
  9 13  4  0  0  0  0
 13 14  1  0  0  0  0
 14 15  1  0  0  0  0
 15 16  1  0  0  0  0
 16 17  1  0  0  0  0
 12 17  1  0  0  0  0
 17 18  1  0  0  0  0
 18 19  1  0  0  0  0
 19 20  2  0  0  0  0
 19 21  1  0  0  0  0
 21 22  4  0  0  0  0
 22 23  4  0  0  0  0
 23 24  4  0  0  0  0
 24 25  4  0  0  0  0
 21 25  4  0  0  0  0
 25 26  1  0  0  0  0
 26 27  1  0  0  0  0
 27 28  1  0  0  0  0
 28 29  1  0  0  0  0
 24 29  1  0  0  0  0
  8 30  4  0  0  0  0
  4 30  4  0  0  0  0
M  END
> <IC50(uM)>
7.3

> <Outcome>
0.0

> <BindingDB ID>
51334968

> <BindingDB MonomerID>
50540325

> <BindingDB Ligand Name>
CHEMBL4633148

> <Curation/DataSource>
ChEMBL

> <Article DOI>
10.1021/acs.jmedchem.9b01658

> <PMID>
32212728

> <Patent Number>
?

> <Authors>
Popova, G; Ladds, MJGW; Johansson, L; Saleh, A; Larsson, J; Sandberg, L; Sahlberg, SH; Qian, W; Gullberg, H; Garg, N; Gustavsson, AL; Haraldsson, M; Lane, D; Yngve, U; Lain, S

> <Link to Ligand in BindingDB>
http://www.bindingdb.org/bind/chemsearch/marvin/MolStructure.jsp?monomerid=50540325

> <Link to Ligand-Target Pair in BindingDB>
http://www.bindingdb.org/jsp/dbsearch/PrimarySearch_ki.jsp?energyterm=kJ/mole&tag=r21&monomerid=50540325&enzyme=Dihydroorotate+dehydrogenase&column=ki&startPg=0&Increment=50&submit=Search

> <PubChem CID>
129104720

> <PubChem SID>
442141888

$$$$

  Mrv2115 07222212352D          

 30 32  0  0  0  0            999 V2000
    0.7145   -3.7125    0.0000 O   0  0  0  0  0  0  0  0  0  0  0  0
    1.4289   -4.1250    0.0000 C   0  0  0  0  0  0  0  0  0  0  0  0
    2.1434   -3.7125    0.0000 O   0  0  0  0  0  0  0  0  0  0  0  0
    1.4289   -4.9500    0.0000 C   0  0  0  0  0  0  0  0  0  0  0  0
    2.0964   -5.4349    0.0000 C   0  0  0  0  0  0  0  0  0  0  0  0
    2.8810   -5.1800    0.0000 C   0  0  0  0  0  0  0  0  0  0  0  0
    3.4941   -5.7320    0.0000 O   0  0  0  0  0  0  0  0  0  0  0  0
    3.0525   -4.3730    0.0000 N   0  0  0  0  0  0  0  0  0  0  0  0
    3.8372   -4.1181    0.0000 C   0  0  0  0  0  0  0  0  0  0  0  0
    4.0087   -3.3111    0.0000 C   0  0  0  0  0  0  0  0  0  0  0  0
    3.3956   -2.7591    0.0000 F   0  0  0  0  0  0  0  0  0  0  0  0
    4.7933   -3.0562    0.0000 C   0  0  0  0  0  0  0  0  0  0  0  0
    5.4064   -3.6082    0.0000 C   0  0  0  0  0  0  0  0  0  0  0  0
    6.1910   -3.3533    0.0000 C   0  0  0  0  0  0  0  0  0  0  0  0
    6.3625   -2.5463    0.0000 C   0  0  0  0  0  0  0  0  0  0  0  0
    7.1472   -2.2913    0.0000 C   0  0  0  0  0  0  0  0  0  0  0  0
    7.7603   -2.8434    0.0000 C   0  0  0  0  0  0  0  0  0  0  0  0
    7.5887   -3.6503    0.0000 C   0  0  0  0  0  0  0  0  0  0  0  0
    8.2018   -4.2024    0.0000 O   0  0  0  0  0  0  0  0  0  0  0  0
    8.9864   -3.9474    0.0000 C   0  0  0  0  0  0  0  0  0  0  0  0
    9.7711   -3.6925    0.0000 F   0  0  0  0  0  0  0  0  0  0  0  0
    9.2414   -4.7321    0.0000 F   0  0  0  0  0  0  0  0  0  0  0  0
    8.7315   -3.1628    0.0000 F   0  0  0  0  0  0  0  0  0  0  0  0
    6.8041   -3.9053    0.0000 C   0  0  0  0  0  0  0  0  0  0  0  0
    5.2349   -4.4152    0.0000 C   0  0  0  0  0  0  0  0  0  0  0  0
    4.4502   -4.6701    0.0000 C   0  0  0  0  0  0  0  0  0  0  0  0
    4.2787   -5.4771    0.0000 F   0  0  0  0  0  0  0  0  0  0  0  0
    1.8414   -6.2195    0.0000 C   0  0  0  0  0  0  0  0  0  0  0  0
    1.0164   -6.2195    0.0000 O   0  0  0  0  0  0  0  0  0  0  0  0
    0.7615   -5.4349    0.0000 C   0  0  0  0  0  0  0  0  0  0  0  0
  1  2  2  0  0  0  0
  2  3  1  0  0  0  0
  2  4  1  0  0  0  0
  4  5  2  0  0  0  0
  5  6  1  0  0  0  0
  6  7  2  0  0  0  0
  6  8  1  0  0  0  0
  8  9  1  0  0  0  0
  9 10  4  0  0  0  0
 10 11  1  0  0  0  0
 10 12  4  0  0  0  0
 12 13  4  0  0  0  0
 13 14  1  0  0  0  0
 14 15  4  0  0  0  0
 15 16  4  0  0  0  0
 16 17  4  0  0  0  0
 17 18  4  0  0  0  0
 18 19  1  0  0  0  0
 19 20  1  0  0  0  0
 20 21  1  0  0  0  0
 20 22  1  0  0  0  0
 20 23  1  0  0  0  0
 18 24  4  0  0  0  0
 14 24  4  0  0  0  0
 13 25  4  0  0  0  0
 25 26  4  0  0  0  0
  9 26  4  0  0  0  0
 26 27  1  0  0  0  0
  5 28  1  0  0  0  0
 28 29  1  0  0  0  0
 29 30  1  0  0  0  0
  4 30  1  0  0  0  0
M  END
> <IC50(uM)>
0.205

> <Outcome>
1.0

> <BindingDB ID>
50319904

> <BindingDB MonomerID>
50173160

> <BindingDB Ligand Name>
4-(3,5-Difluoro-3'-trifluoromethoxy-biphenyl-4-ylcarbamoyl)-2,5-dihydro-furan-3-carboxylic acid::CHEMBL195163

> <Curation/DataSource>
ChEMBL

> <Article DOI>
10.1016/j.bmcl.2005.07.053

> <PMID>
16143532

> <Patent Number>
?

> <Authors>
Leban, J; Kralik, M; Mies, J; Gassen, M; Tentschert, K; Baumgartner, R

> <Link to Ligand in BindingDB>
http://www.bindingdb.org/bind/chemsearch/marvin/MolStructure.jsp?monomerid=50173160

> <Link to Ligand-Target Pair in BindingDB>
http://www.bindingdb.org/jsp/dbsearch/PrimarySearch_ki.jsp?energyterm=kJ/mole&tag=r21&monomerid=50173160&enzyme=Dihydroorotate+dehydrogenase&column=ki&startPg=0&Increment=50&submit=Search

> <PubChem CID>
44403240

> <PubChem SID>
104059131

$$$$

  Mrv2115 07222212352D          

 34 37  0  0  0  0            999 V2000
   -1.8659    1.4455    0.0000 C   0  0  0  0  0  0  0  0  0  0  0  0
   -2.6909    1.4455    0.0000 C   0  0  0  0  0  0  0  0  0  0  0  0
   -3.1034    0.7310    0.0000 O   0  0  0  0  0  0  0  0  0  0  0  0
   -2.6909    0.0165    0.0000 C   0  0  0  0  0  0  0  0  0  0  0  0
   -1.8659    0.0165    0.0000 C   0  0  0  0  0  0  0  0  0  0  0  0
   -1.4534   -0.6979    0.0000 C   0  0  0  0  0  0  0  0  0  0  0  0
   -0.6284   -0.6979    0.0000 N   0  0  0  0  0  0  0  0  0  0  0  0
   -0.1435   -1.3654    0.0000 N   0  0  0  0  0  0  0  0  0  0  0  0
    0.6411   -1.1104    0.0000 C   0  0  0  0  0  0  0  0  0  0  0  0
    0.6411   -0.2854    0.0000 N   0  0  0  0  0  0  0  0  0  0  0  0
   -0.1435   -0.0305    0.0000 C   0  0  0  0  0  0  0  0  0  0  0  0
   -0.3984    0.7541    0.0000 O   0  0  0  0  0  0  0  0  0  0  0  0
    1.3556    0.1271    0.0000 C   0  0  0  0  0  0  0  0  0  0  0  0
    2.0701   -0.2854    0.0000 C   0  0  0  0  0  0  0  0  0  0  0  0
    2.0701   -1.1104    0.0000 C   0  0  0  0  0  0  0  0  0  0  0  0
    1.3556   -1.5229    0.0000 C   0  0  0  0  0  0  0  0  0  0  0  0
   -1.8659   -1.4124    0.0000 C   0  0  0  0  0  0  0  0  0  0  0  0
   -1.4534   -2.1269    0.0000 F   0  0  0  0  0  0  0  0  0  0  0  0
   -2.6909   -1.4124    0.0000 C   0  0  0  0  0  0  0  0  0  0  0  0
   -3.1034   -0.6979    0.0000 C   0  0  0  0  0  0  0  0  0  0  0  0
   -3.9284   -0.6979    0.0000 C   0  0  0  0  0  0  0  0  0  0  0  0
   -4.3409    0.0165    0.0000 O   0  0  0  0  0  0  0  0  0  0  0  0
   -4.3409   -1.4124    0.0000 N   0  0  0  0  0  0  0  0  0  0  0  0
   -3.9284   -2.1269    0.0000 C   0  0  0  0  0  0  0  0  0  0  0  0
   -4.3409   -2.8414    0.0000 C   0  0  0  0  0  0  0  0  0  0  0  0
   -5.0554   -2.4289    0.0000 C   0  0  0  0  0  0  0  0  0  0  0  0
   -3.6265   -3.2539    0.0000 C   0  0  0  0  0  0  0  0  0  0  0  0
   -4.7534   -3.5558    0.0000 O   0  0  0  0  0  0  0  0  0  0  0  0
   -3.1034    2.1599    0.0000 C   0  0  0  0  0  0  0  0  0  0  0  0
   -3.9284    2.1599    0.0000 C   0  0  0  0  0  0  0  0  0  0  0  0
   -4.3409    2.8744    0.0000 C   0  0  0  0  0  0  0  0  0  0  0  0
   -3.9284    3.5889    0.0000 C   0  0  0  0  0  0  0  0  0  0  0  0
   -3.1034    3.5889    0.0000 C   0  0  0  0  0  0  0  0  0  0  0  0
   -2.6909    2.8744    0.0000 C   0  0  0  0  0  0  0  0  0  0  0  0
  1  2  1  0  0  0  0
  2  3  1  0  0  0  0
  3  4  1  0  0  0  0
  4  5  4  0  0  0  0
  5  6  4  0  0  0  0
  6  7  1  0  0  0  0
  7  8  4  0  0  0  0
  8  9  4  0  0  0  0
  9 10  4  0  0  0  0
 10 11  4  0  0  0  0
  7 11  4  0  0  0  0
 11 12  2  0  0  0  0
 10 13  1  0  0  0  0
 13 14  1  0  0  0  0
 14 15  1  0  0  0  0
 15 16  1  0  0  0  0
  9 16  1  0  0  0  0
  6 17  4  0  0  0  0
 17 18  1  0  0  0  0
 17 19  4  0  0  0  0
 19 20  4  0  0  0  0
  4 20  4  0  0  0  0
 20 21  1  0  0  0  0
 21 22  2  0  0  0  0
 21 23  1  0  0  0  0
 23 24  1  0  0  0  0
 24 25  1  0  0  0  0
 25 26  1  0  0  0  0
 25 27  1  0  0  0  0
 25 28  1  0  0  0  0
  2 29  1  0  0  0  0
 29 30  1  0  0  0  0
 30 31  1  0  0  0  0
 31 32  1  0  0  0  0
 32 33  1  0  0  0  0
 33 34  1  0  0  0  0
 29 34  1  0  0  0  0
M  END
> <IC50(uM)>
0.15

> <Outcome>
1.0

> <BindingDB ID>
1020569

> <BindingDB MonomerID>
490508

> <BindingDB Ligand Name>
2-[(1S)-1-cyclohexylethoxy]-5-fluoro-N-(2-hydroxy-2-methylpropyl)-4-(3-oxo-5,6,7,8-tetrahydro-[1,2,4]triazolo[4,3-a]pyridin-2(3H)-yl)benzamide::US10968216, Example 176

> <Curation/DataSource>
US Patent

> <Article DOI>
?

> <PMID>
?

> <Patent Number>
US10968216

> <Authors>
Gradl, SN; Nguyen, D; Eis, K; Gunther, J; Stellfeld, T; Janzer, A; Christian, S; Mueller, T; Sheikh, SE; Zhou, HJ; Zhao, C; Sykes, DB; Ferrara, SJ; Liu, K; Herbert, SA; Merz, C; Niehues, M; Nising, CF; Schafer, M; Zimmermann, K; Knablein, J; Thede, K; Faupel, T

> <Link to Ligand in BindingDB>
http://www.bindingdb.org/bind/chemsearch/marvin/MolStructure.jsp?monomerid=490508

> <Link to Ligand-Target Pair in BindingDB>
http://www.bindingdb.org/jsp/dbsearch/PrimarySearch_ki.jsp?energyterm=kJ/mole&tag=r21&monomerid=490508&enzyme=Dihydroorotate+dehydrogenase&column=ki&startPg=0&Increment=50&submit=Search

> <PubChem CID>
142335897

> <PubChem SID>
447117235

$$$$

  Mrv2115 07222212352D          

 17 18  0  0  0  0            999 V2000
    1.4289    0.0000    0.0000 O   0  0  0  0  0  0  0  0  0  0  0  0
    2.1434   -0.4125    0.0000 C   0  0  0  0  0  0  0  0  0  0  0  0
    2.8579    0.0000    0.0000 O   0  0  0  0  0  0  0  0  0  0  0  0
    2.1434   -1.2375    0.0000 C   0  0  0  0  0  0  0  0  0  0  0  0
    1.4289   -1.6500    0.0000 C   0  0  0  0  0  0  0  0  0  0  0  0
    1.4289   -2.4750    0.0000 C   0  0  0  0  0  0  0  0  0  0  0  0
    2.1434   -2.8875    0.0000 C   0  0  0  0  0  0  0  0  0  0  0  0
    2.1434   -3.7125    0.0000 Cl  0  0  0  0  0  0  0  0  0  0  0  0
    2.8579   -2.4750    0.0000 C   0  0  0  0  0  0  0  0  0  0  0  0
    2.8579   -1.6500    0.0000 C   0  0  0  0  0  0  0  0  0  0  0  0
    3.5724   -1.2375    0.0000 N   0  0  0  0  0  0  0  0  0  0  0  0
    4.2868   -1.6500    0.0000 C   0  0  0  0  0  0  0  0  0  0  0  0
    5.0013   -1.2375    0.0000 C   0  0  0  0  0  0  0  0  0  0  0  0
    5.7158   -1.6500    0.0000 C   0  0  0  0  0  0  0  0  0  0  0  0
    5.7158   -2.4750    0.0000 C   0  0  0  0  0  0  0  0  0  0  0  0
    5.0013   -2.8875    0.0000 C   0  0  0  0  0  0  0  0  0  0  0  0
    4.2868   -2.4750    0.0000 C   0  0  0  0  0  0  0  0  0  0  0  0
  1  2  2  0  0  0  0
  2  3  1  0  0  0  0
  2  4  1  0  0  0  0
  4  5  4  0  0  0  0
  5  6  4  0  0  0  0
  6  7  4  0  0  0  0
  7  8  1  0  0  0  0
  7  9  4  0  0  0  0
  9 10  4  0  0  0  0
  4 10  4  0  0  0  0
 10 11  1  0  0  0  0
 11 12  1  0  0  0  0
 12 13  4  0  0  0  0
 13 14  4  0  0  0  0
 14 15  4  0  0  0  0
 15 16  4  0  0  0  0
 16 17  4  0  0  0  0
 12 17  4  0  0  0  0
M  END
> <IC50(uM)>
20.0

> <Outcome>
0.0

> <BindingDB ID>
50527780

> <BindingDB MonomerID>
50201624

> <BindingDB Ligand Name>
CHEMBL3961002

> <Curation/DataSource>
ChEMBL

> <Article DOI>
10.1021/acsmedchemlett.6b00316

> <PMID>
27994748

> <Patent Number>
?

> <Authors>
Lewis, TA; Sykes, DB; Law, JM; Mu??oz, B; Rustiguel, JK; Nonato, MC; Scadden, DT; Schreiber, SL

> <Link to Ligand in BindingDB>
http://www.bindingdb.org/bind/chemsearch/marvin/MolStructure.jsp?monomerid=50201624

> <Link to Ligand-Target Pair in BindingDB>
http://www.bindingdb.org/jsp/dbsearch/PrimarySearch_ki.jsp?energyterm=kJ/mole&tag=r21&monomerid=50201624&enzyme=Dihydroorotate+dehydrogenase&column=ki&startPg=0&Increment=50&submit=Search

> <PubChem CID>
615334

> <PubChem SID>
375979412

$$$$

  Mrv2115 07222212352D          

 35 38  0  0  0  0            999 V2000
   -3.1034    2.1599    0.0000 C   0  0  0  0  0  0  0  0  0  0  0  0
   -2.6909    1.4455    0.0000 C   0  0  0  0  0  0  0  0  0  0  0  0
   -3.1034    0.7310    0.0000 O   0  0  0  0  0  0  0  0  0  0  0  0
   -2.6909    0.0165    0.0000 C   0  0  0  0  0  0  0  0  0  0  0  0
   -1.8659    0.0165    0.0000 C   0  0  0  0  0  0  0  0  0  0  0  0
   -1.4534   -0.6979    0.0000 C   0  0  0  0  0  0  0  0  0  0  0  0
   -0.6284   -0.6979    0.0000 N   0  0  0  0  0  0  0  0  0  0  0  0
   -0.1435   -1.3654    0.0000 N   0  0  0  0  0  0  0  0  0  0  0  0
    0.6411   -1.1104    0.0000 C   0  0  0  0  0  0  0  0  0  0  0  0
    0.6411   -0.2854    0.0000 N   0  0  0  0  0  0  0  0  0  0  0  0
   -0.1435   -0.0305    0.0000 C   0  0  0  0  0  0  0  0  0  0  0  0
   -0.3984    0.7541    0.0000 O   0  0  0  0  0  0  0  0  0  0  0  0
    1.3556    0.1271    0.0000 C   0  0  0  0  0  0  0  0  0  0  0  0
    2.0701   -0.2854    0.0000 C   0  0  0  0  0  0  0  0  0  0  0  0
    2.0701   -1.1104    0.0000 C   0  0  0  0  0  0  0  0  0  0  0  0
    1.3556   -1.5229    0.0000 C   0  0  0  0  0  0  0  0  0  0  0  0
   -1.8659   -1.4124    0.0000 C   0  0  0  0  0  0  0  0  0  0  0  0
   -1.4534   -2.1269    0.0000 Cl  0  0  0  0  0  0  0  0  0  0  0  0
   -2.6909   -1.4124    0.0000 C   0  0  0  0  0  0  0  0  0  0  0  0
   -3.1034   -0.6979    0.0000 C   0  0  0  0  0  0  0  0  0  0  0  0
   -3.9284   -0.6979    0.0000 C   0  0  0  0  0  0  0  0  0  0  0  0
   -4.3409    0.0165    0.0000 O   0  0  0  0  0  0  0  0  0  0  0  0
   -4.3409   -1.4124    0.0000 N   0  0  0  0  0  0  0  0  0  0  0  0
   -5.1659   -1.4124    0.0000 C   0  0  0  0  0  0  0  0  0  0  0  0
   -5.5784   -2.1269    0.0000 C   0  0  0  0  0  0  0  0  0  0  0  0
   -5.1659   -2.8414    0.0000 F   0  0  0  0  0  0  0  0  0  0  0  0
   -6.4034   -2.1269    0.0000 C   0  0  0  0  0  0  0  0  0  0  0  0
   -6.8159   -1.4124    0.0000 C   0  0  0  0  0  0  0  0  0  0  0  0
   -6.4034   -0.6979    0.0000 C   0  0  0  0  0  0  0  0  0  0  0  0
   -5.5784   -0.6979    0.0000 C   0  0  0  0  0  0  0  0  0  0  0  0
   -5.1659    0.0165    0.0000 Cl  0  0  0  0  0  0  0  0  0  0  0  0
   -1.8659    1.4455    0.0000 C   0  0  0  0  0  0  0  0  0  0  0  0
   -1.8659    0.6205    0.0000 F   0  0  0  0  0  0  0  0  0  0  0  0
   -1.8659    2.2705    0.0000 F   0  0  0  0  0  0  0  0  0  0  0  0
   -1.0409    1.4455    0.0000 F   0  0  0  0  0  0  0  0  0  0  0  0
  1  2  1  0  0  0  0
  2  3  1  0  0  0  0
  3  4  1  0  0  0  0
  4  5  4  0  0  0  0
  5  6  4  0  0  0  0
  6  7  1  0  0  0  0
  7  8  4  0  0  0  0
  8  9  4  0  0  0  0
  9 10  4  0  0  0  0
 10 11  4  0  0  0  0
  7 11  4  0  0  0  0
 11 12  2  0  0  0  0
 10 13  1  0  0  0  0
 13 14  1  0  0  0  0
 14 15  1  0  0  0  0
 15 16  1  0  0  0  0
  9 16  1  0  0  0  0
  6 17  4  0  0  0  0
 17 18  1  0  0  0  0
 17 19  4  0  0  0  0
 19 20  4  0  0  0  0
  4 20  4  0  0  0  0
 20 21  1  0  0  0  0
 21 22  2  0  0  0  0
 21 23  1  0  0  0  0
 23 24  1  0  0  0  0
 24 25  4  0  0  0  0
 25 26  1  0  0  0  0
 25 27  4  0  0  0  0
 27 28  4  0  0  0  0
 28 29  4  0  0  0  0
 29 30  4  0  0  0  0
 24 30  4  0  0  0  0
 30 31  1  0  0  0  0
  2 32  1  0  0  0  0
 32 33  1  0  0  0  0
 32 34  1  0  0  0  0
 32 35  1  0  0  0  0
M  END
> <IC50(uM)>
0.04

> <Outcome>
1.0

> <BindingDB ID>
1020688

> <BindingDB MonomerID>
490614

> <BindingDB Ligand Name>
5-chloro-N-(2-chloro-6-fluorophenyl)-4-(3-oxo-5,6,7,8-tetrahydro[1,2,4]triazolo[4,3-a]pyridin-2(3H)-yl)-2-{[(2S)-1,1,1-trifluoropropan-2-yl]oxy}benzamide::US10968216, Example 282

> <Curation/DataSource>
US Patent

> <Article DOI>
?

> <PMID>
?

> <Patent Number>
US10968216

> <Authors>
Gradl, SN; Nguyen, D; Eis, K; Gunther, J; Stellfeld, T; Janzer, A; Christian, S; Mueller, T; Sheikh, SE; Zhou, HJ; Zhao, C; Sykes, DB; Ferrara, SJ; Liu, K; Herbert, SA; Merz, C; Niehues, M; Nising, CF; Schafer, M; Zimmermann, K; Knablein, J; Thede, K; Faupel, T

> <Link to Ligand in BindingDB>
http://www.bindingdb.org/bind/chemsearch/marvin/MolStructure.jsp?monomerid=490614

> <Link to Ligand-Target Pair in BindingDB>
http://www.bindingdb.org/jsp/dbsearch/PrimarySearch_ki.jsp?energyterm=kJ/mole&tag=r21&monomerid=490614&enzyme=Dihydroorotate+dehydrogenase&column=ki&startPg=0&Increment=50&submit=Search

> <PubChem CID>
134474185

> <PubChem SID>
447117340

$$$$

  Mrv2115 07222212352D          

 36 38  0  0  0  0            999 V2000
    2.1434   -3.7125    0.0000 C   0  0  0  0  0  0  0  0  0  0  0  0
    1.4289   -4.1250    0.0000 C   0  0  0  0  0  0  0  0  0  0  0  0
    1.4289   -4.9500    0.0000 N   0  0  0  0  0  0  0  0  0  0  0  0
    0.7615   -5.4349    0.0000 C   0  0  0  0  0  0  0  0  0  0  0  0
   -0.0231   -5.1800    0.0000 C   0  0  0  0  0  0  0  0  0  0  0  0
   -0.1946   -4.3730    0.0000 O   0  0  0  0  0  0  0  0  0  0  0  0
   -0.6362   -5.7320    0.0000 O   0  0  0  0  0  0  0  0  0  0  0  0
    1.0164   -6.2195    0.0000 N   0  0  0  0  0  0  0  0  0  0  0  0
    1.8414   -6.2195    0.0000 N   0  0  0  0  0  0  0  0  0  0  0  0
    2.3264   -6.8870    0.0000 C   0  0  0  0  0  0  0  0  0  0  0  0
    3.1468   -6.8007    0.0000 C   0  0  0  0  0  0  0  0  0  0  0  0
    3.6318   -7.4682    0.0000 C   0  0  0  0  0  0  0  0  0  0  0  0
    4.4522   -7.3820    0.0000 O   0  0  0  0  0  0  0  0  0  0  0  0
    4.7878   -6.6283    0.0000 C   0  0  0  0  0  0  0  0  0  0  0  0
    4.3029   -5.9608    0.0000 C   0  0  0  0  0  0  0  0  0  0  0  0
    5.6083   -6.5420    0.0000 C   0  0  0  0  0  0  0  0  0  0  0  0
    5.6945   -7.3625    0.0000 F   0  0  0  0  0  0  0  0  0  0  0  0
    5.5221   -5.7216    0.0000 F   0  0  0  0  0  0  0  0  0  0  0  0
    6.4288   -6.4558    0.0000 F   0  0  0  0  0  0  0  0  0  0  0  0
    3.2962   -8.2219    0.0000 C   0  0  0  0  0  0  0  0  0  0  0  0
    3.7811   -8.8893    0.0000 C   0  0  0  0  0  0  0  0  0  0  0  0
    3.4456   -9.6430    0.0000 O   0  0  0  0  0  0  0  0  0  0  0  0
    4.6016   -8.8031    0.0000 N   0  0  0  0  0  0  0  0  0  0  0  0
    5.0865   -9.4705    0.0000 C   0  0  0  0  0  0  0  0  0  0  0  0
    5.9070   -9.3843    0.0000 C   0  0  0  0  0  0  0  0  0  0  0  0
    6.2426   -8.6306    0.0000 F   0  0  0  0  0  0  0  0  0  0  0  0
    6.3919  -10.0517    0.0000 C   0  0  0  0  0  0  0  0  0  0  0  0
    6.0564  -10.8054    0.0000 C   0  0  0  0  0  0  0  0  0  0  0  0
    5.2359  -10.8916    0.0000 C   0  0  0  0  0  0  0  0  0  0  0  0
    4.7510  -10.2242    0.0000 C   0  0  0  0  0  0  0  0  0  0  0  0
    3.9305  -10.3104    0.0000 F   0  0  0  0  0  0  0  0  0  0  0  0
    2.4757   -8.3081    0.0000 C   0  0  0  0  0  0  0  0  0  0  0  0
    1.9908   -7.6407    0.0000 C   0  0  0  0  0  0  0  0  0  0  0  0
    1.1703   -7.7269    0.0000 F   0  0  0  0  0  0  0  0  0  0  0  0
    2.0964   -5.4349    0.0000 C   0  0  0  0  0  0  0  0  0  0  0  0
    2.8810   -5.1800    0.0000 O   0  0  0  0  0  0  0  0  0  0  0  0
  1  2  1  0  0  0  0
  2  3  1  0  0  0  0
  3  4  4  0  0  0  0
  4  5  1  0  0  0  0
  5  6  2  0  0  0  0
  5  7  1  0  0  0  0
  4  8  4  0  0  0  0
  8  9  4  0  0  0  0
  9 10  1  0  0  0  0
 10 11  4  0  0  0  0
 11 12  4  0  0  0  0
 12 13  1  0  0  0  0
 13 14  1  0  0  0  0
 14 15  1  0  0  0  0
 14 16  1  0  0  0  0
 16 17  1  0  0  0  0
 16 18  1  0  0  0  0
 16 19  1  0  0  0  0
 12 20  4  0  0  0  0
 20 21  1  0  0  0  0
 21 22  2  0  0  0  0
 21 23  1  0  0  0  0
 23 24  1  0  0  0  0
 24 25  4  0  0  0  0
 25 26  1  0  0  0  0
 25 27  4  0  0  0  0
 27 28  4  0  0  0  0
 28 29  4  0  0  0  0
 29 30  4  0  0  0  0
 24 30  4  0  0  0  0
 30 31  1  0  0  0  0
 20 32  4  0  0  0  0
 32 33  4  0  0  0  0
 10 33  4  0  0  0  0
 33 34  1  0  0  0  0
  9 35  4  0  0  0  0
  3 35  4  0  0  0  0
 35 36  2  0  0  0  0
M  END
> <IC50(uM)>
0.0075

> <Outcome>
1.0

> <BindingDB ID>
972686; 1098840

> <BindingDB MonomerID>
470564

> <BindingDB Ligand Name>
1-(4-[(2,6-difluorophenyl)carbamoyl]-2-fluoro-5-{[(2S)-1,1,1-trifluoropropan-2-yl]oxy}phenyl)-4-ethyl-5-oxo-4,5-dihydro-1H-1,2,4-triazole-3-carboxylic acid::US10815215, Example 224; 1-(4-[(2,6-difluorophenyl)carbamoyl]-2-fluoro-5-{[(2S)-1,1,1-trifluoropropan-2-yl]oxy}phenyl)-4-ethyl-5-oxo-4,5-dihydro-1H-1,2,4-triazole-3-carboxylic acid::US10815215, Example 224::US11130745, Example 224

> <Curation/DataSource>
US Patent

> <Article DOI>
?

> <PMID>
?

> <Patent Number>
US10815215; US11130745

> <Authors>
Gradl, SN; Nguyen, D; Eis, K; Gunther, J; Stellfeld, T; Janzer, A; Christian, S; Muller, T; Sheikh, SE; Zhou, HJ; Zhao, C; Sykes, DB; Ferrara, SJ; Liu, K; Krober, M; Merz, C; Niehues, M; Schafer, M; Zimmermann, K; Nising, CF; Gradl, SN; Nguyen, D; Eis, K; Gunther, J; Stellfeld, T; Janzer, A; Christian, S; Muller, T; Sheikh, SE; Sykes, DB; Ferrara, SJ; Krober, M; Merz, C; Niehues, M; Schafer, M; Zimmermann, K; Nising, CF

> <Link to Ligand in BindingDB>
http://www.bindingdb.org/bind/chemsearch/marvin/MolStructure.jsp?monomerid=470564

> <Link to Ligand-Target Pair in BindingDB>
http://www.bindingdb.org/jsp/dbsearch/PrimarySearch_ki.jsp?energyterm=kJ/mole&tag=r21&monomerid=470564&enzyme=Dihydroorotate+dehydrogenase&column=ki&startPg=0&Increment=50&submit=Search

> <PubChem CID>
134470216

> <PubChem SID>
441609740

$$$$

  Mrv2115 07222212352D          

 37 40  0  0  0  0            999 V2000
    0.0000   -4.1250    0.0000 C   0  0  0  0  0  0  0  0  0  0  0  0
    0.0000   -4.9500    0.0000 C   0  0  0  0  0  0  0  0  0  0  0  0
   -0.6674   -5.4349    0.0000 N   0  0  0  0  0  0  0  0  0  0  0  0
   -0.4125   -6.2195    0.0000 N   0  0  0  0  0  0  0  0  0  0  0  0
   -0.8974   -6.8870    0.0000 C   0  0  0  0  0  0  0  0  0  0  0  0
   -0.5619   -7.6407    0.0000 C   0  0  0  0  0  0  0  0  0  0  0  0
   -1.0468   -8.3081    0.0000 C   0  0  0  0  0  0  0  0  0  0  0  0
   -0.7112   -9.0618    0.0000 O   0  0  0  0  0  0  0  0  0  0  0  0
    0.1093   -9.1480    0.0000 C   0  0  0  0  0  0  0  0  0  0  0  0
    0.5942   -8.4806    0.0000 C   0  0  0  0  0  0  0  0  0  0  0  0
    0.4448   -9.9017    0.0000 C   0  0  0  0  0  0  0  0  0  0  0  0
   -0.3089  -10.2372    0.0000 F   0  0  0  0  0  0  0  0  0  0  0  0
    1.1985   -9.5661    0.0000 F   0  0  0  0  0  0  0  0  0  0  0  0
    0.7804  -10.6554    0.0000 F   0  0  0  0  0  0  0  0  0  0  0  0
   -1.8673   -8.2219    0.0000 C   0  0  0  0  0  0  0  0  0  0  0  0
   -2.3522   -8.8893    0.0000 C   0  0  0  0  0  0  0  0  0  0  0  0
   -2.0166   -9.6430    0.0000 O   0  0  0  0  0  0  0  0  0  0  0  0
   -3.1727   -8.8031    0.0000 N   0  0  0  0  0  0  0  0  0  0  0  0
   -3.6576   -9.4705    0.0000 C   0  0  0  0  0  0  0  0  0  0  0  0
   -3.3220  -10.2242    0.0000 C   0  0  0  0  0  0  0  0  0  0  0  0
   -2.5016  -10.3104    0.0000 F   0  0  0  0  0  0  0  0  0  0  0  0
   -3.8070  -10.8916    0.0000 C   0  0  0  0  0  0  0  0  0  0  0  0
   -4.6274  -10.8054    0.0000 C   0  0  0  0  0  0  0  0  0  0  0  0
   -4.9630  -10.0517    0.0000 C   0  0  0  0  0  0  0  0  0  0  0  0
   -4.4781   -9.3843    0.0000 C   0  0  0  0  0  0  0  0  0  0  0  0
   -4.8136   -8.6306    0.0000 Cl  0  0  0  0  0  0  0  0  0  0  0  0
   -2.2028   -7.4682    0.0000 C   0  0  0  0  0  0  0  0  0  0  0  0
   -1.7179   -6.8007    0.0000 C   0  0  0  0  0  0  0  0  0  0  0  0
   -2.0535   -6.0471    0.0000 F   0  0  0  0  0  0  0  0  0  0  0  0
    0.4125   -6.2195    0.0000 C   0  0  0  0  0  0  0  0  0  0  0  0
    0.8974   -6.8870    0.0000 O   0  0  0  0  0  0  0  0  0  0  0  0
    0.6674   -5.4349    0.0000 N   0  0  0  0  0  0  0  0  0  0  0  0
    1.4521   -5.1800    0.0000 C   0  0  0  0  0  0  0  0  0  0  0  0
    1.7070   -4.3954    0.0000 C   0  0  0  0  0  0  0  0  0  0  0  0
    2.5320   -4.3954    0.0000 C   0  0  0  0  0  0  0  0  0  0  0  0
    2.7869   -5.1800    0.0000 C   0  0  0  0  0  0  0  0  0  0  0  0
    2.1195   -5.6649    0.0000 C   0  0  0  0  0  0  0  0  0  0  0  0
  1  2  1  0  0  0  0
  2  3  4  0  0  0  0
  3  4  4  0  0  0  0
  4  5  1  0  0  0  0
  5  6  4  0  0  0  0
  6  7  4  0  0  0  0
  7  8  1  0  0  0  0
  8  9  1  0  0  0  0
  9 10  1  0  0  0  0
  9 11  1  0  0  0  0
 11 12  1  0  0  0  0
 11 13  1  0  0  0  0
 11 14  1  0  0  0  0
  7 15  4  0  0  0  0
 15 16  1  0  0  0  0
 16 17  2  0  0  0  0
 16 18  1  0  0  0  0
 18 19  1  0  0  0  0
 19 20  4  0  0  0  0
 20 21  1  0  0  0  0
 20 22  4  0  0  0  0
 22 23  4  0  0  0  0
 23 24  4  0  0  0  0
 24 25  4  0  0  0  0
 19 25  4  0  0  0  0
 25 26  1  0  0  0  0
 15 27  4  0  0  0  0
 27 28  4  0  0  0  0
  5 28  4  0  0  0  0
 28 29  1  0  0  0  0
  4 30  4  0  0  0  0
 30 31  2  0  0  0  0
 30 32  4  0  0  0  0
  2 32  4  0  0  0  0
 32 33  1  0  0  0  0
 33 34  1  0  0  0  0
 34 35  1  0  0  0  0
 35 36  1  0  0  0  0
 36 37  1  0  0  0  0
 33 37  1  0  0  0  0
M  END
> <IC50(uM)>
30.0

> <Outcome>
0.0

> <BindingDB ID>
972550

> <BindingDB MonomerID>
470424

> <BindingDB Ligand Name>
4-(4-cyclopentyl-3-methyl-5-oxo-4,5-dihydro-1H-1,2,4-triazol-1-yl)-N-(2,6-difluorophenyl)-5-fluoro-2-{[(2S)-1,1,1-trifluoropropan-2-yl]oxy}benzamide::US10815215, Example 92

> <Curation/DataSource>
US Patent

> <Article DOI>
?

> <PMID>
?

> <Patent Number>
US10815215

> <Authors>
Gradl, SN; Nguyen, D; Eis, K; Gunther, J; Stellfeld, T; Janzer, A; Christian, S; Muller, T; Sheikh, SE; Zhou, HJ; Zhao, C; Sykes, DB; Ferrara, SJ; Liu, K; Krober, M; Merz, C; Niehues, M; Schafer, M; Zimmermann, K; Nising, CF

> <Link to Ligand in BindingDB>
http://www.bindingdb.org/bind/chemsearch/marvin/MolStructure.jsp?monomerid=470424

> <Link to Ligand-Target Pair in BindingDB>
http://www.bindingdb.org/jsp/dbsearch/PrimarySearch_ki.jsp?energyterm=kJ/mole&tag=r21&monomerid=470424&enzyme=Dihydroorotate+dehydrogenase&column=ki&startPg=0&Increment=50&submit=Search

> <PubChem CID>
146535795

> <PubChem SID>
441609601

$$$$

  Mrv2115 07222212352D          

 35 37  0  0  0  0            999 V2000
    0.7145   -3.7125    0.0000 C   0  0  0  0  0  0  0  0  0  0  0  0
    1.4289   -4.1250    0.0000 C   0  0  0  0  0  0  0  0  0  0  0  0
    2.1434   -3.7125    0.0000 O   0  0  0  0  0  0  0  0  0  0  0  0
    1.4289   -4.9500    0.0000 C   0  0  0  0  0  0  0  0  0  0  0  0
    0.7615   -5.4349    0.0000 N   0  0  0  0  0  0  0  0  0  0  0  0
    1.0164   -6.2195    0.0000 N   0  0  0  0  0  0  0  0  0  0  0  0
    0.5315   -6.8870    0.0000 C   0  0  0  0  0  0  0  0  0  0  0  0
    0.8671   -7.6407    0.0000 C   0  0  0  0  0  0  0  0  0  0  0  0
    0.3822   -8.3081    0.0000 C   0  0  0  0  0  0  0  0  0  0  0  0
    0.7177   -9.0618    0.0000 O   0  0  0  0  0  0  0  0  0  0  0  0
    1.5382   -9.1480    0.0000 C   0  0  0  0  0  0  0  0  0  0  0  0
    2.0231   -8.4806    0.0000 C   0  0  0  0  0  0  0  0  0  0  0  0
    1.8738   -9.9017    0.0000 C   0  0  0  0  0  0  0  0  0  0  0  0
    1.1201  -10.2372    0.0000 F   0  0  0  0  0  0  0  0  0  0  0  0
    2.6274   -9.5661    0.0000 F   0  0  0  0  0  0  0  0  0  0  0  0
    2.2093  -10.6554    0.0000 F   0  0  0  0  0  0  0  0  0  0  0  0
   -0.4383   -8.2219    0.0000 C   0  0  0  0  0  0  0  0  0  0  0  0
   -0.9232   -8.8893    0.0000 C   0  0  0  0  0  0  0  0  0  0  0  0
   -1.7437   -8.8031    0.0000 O   0  0  0  0  0  0  0  0  0  0  0  0
   -0.5877   -9.6430    0.0000 N   0  0  0  0  0  0  0  0  0  0  0  0
   -1.0726  -10.3104    0.0000 C   0  0  0  0  0  0  0  0  0  0  0  0
   -0.7371  -11.0641    0.0000 C   0  0  0  0  0  0  0  0  0  0  0  0
    0.0834  -11.1503    0.0000 F   0  0  0  0  0  0  0  0  0  0  0  0
   -1.2220  -11.7315    0.0000 C   0  0  0  0  0  0  0  0  0  0  0  0
   -2.0425  -11.6453    0.0000 C   0  0  0  0  0  0  0  0  0  0  0  0
   -2.3780  -10.8916    0.0000 C   0  0  0  0  0  0  0  0  0  0  0  0
   -1.8931  -10.2242    0.0000 C   0  0  0  0  0  0  0  0  0  0  0  0
   -2.2287   -9.4705    0.0000 F   0  0  0  0  0  0  0  0  0  0  0  0
   -0.7739   -7.4682    0.0000 C   0  0  0  0  0  0  0  0  0  0  0  0
   -0.2890   -6.8007    0.0000 C   0  0  0  0  0  0  0  0  0  0  0  0
   -0.6245   -6.0471    0.0000 F   0  0  0  0  0  0  0  0  0  0  0  0
    1.8414   -6.2195    0.0000 C   0  0  0  0  0  0  0  0  0  0  0  0
    2.3264   -6.8870    0.0000 O   0  0  0  0  0  0  0  0  0  0  0  0
    2.0964   -5.4349    0.0000 N   0  0  0  0  0  0  0  0  0  0  0  0
    2.8810   -5.1800    0.0000 C   0  0  0  0  0  0  0  0  0  0  0  0
  1  2  1  0  0  0  0
  2  3  1  0  0  0  0
  2  4  1  0  0  0  0
  4  5  4  0  0  0  0
  5  6  4  0  0  0  0
  6  7  1  0  0  0  0
  7  8  4  0  0  0  0
  8  9  4  0  0  0  0
  9 10  1  0  0  0  0
 10 11  1  0  0  0  0
 11 12  1  0  0  0  0
 11 13  1  0  0  0  0
 13 14  1  0  0  0  0
 13 15  1  0  0  0  0
 13 16  1  0  0  0  0
  9 17  4  0  0  0  0
 17 18  1  0  0  0  0
 18 19  2  0  0  0  0
 18 20  1  0  0  0  0
 20 21  1  0  0  0  0
 21 22  4  0  0  0  0
 22 23  1  0  0  0  0
 22 24  4  0  0  0  0
 24 25  4  0  0  0  0
 25 26  4  0  0  0  0
 26 27  4  0  0  0  0
 21 27  4  0  0  0  0
 27 28  1  0  0  0  0
 17 29  4  0  0  0  0
 29 30  4  0  0  0  0
  7 30  4  0  0  0  0
 30 31  1  0  0  0  0
  6 32  4  0  0  0  0
 32 33  2  0  0  0  0
 32 34  4  0  0  0  0
  4 34  4  0  0  0  0
 34 35  1  0  0  0  0
M  END
> <IC50(uM)>
0.054299999999999994

> <Outcome>
1.0

> <BindingDB ID>
1098707; 972553

> <BindingDB MonomerID>
470427

> <BindingDB Ligand Name>
N-(2,6-difluorophenyl)-5-fluoro-4-[3-(1-hydroxyethyl)-4-methyl-5-oxo-4,5-dihydro-1H-1,2,4-triazol-1-yl]-2-{[(2S)-1,1,1-trifluoropropan-2-yl]oxy}benzamide, Single Stereomer::US10815215, Example 95::US11130745, Example 95; N-(2,6-difluorophenyl)-5-fluoro-4-[3-(1-hydroxyethyl)-4-methyl-5-oxo-4,5-dihydro-1H-1,2,4-triazol-1-yl]-2-{[(2S)-1,1,1-trifluoropropan-2-yl]oxy}benzamide, Single Stereomer::US10815215, Example 95

> <Curation/DataSource>
US Patent

> <Article DOI>
?

> <PMID>
?

> <Patent Number>
US11130745; US10815215

> <Authors>
Gradl, SN; Nguyen, D; Eis, K; Gunther, J; Stellfeld, T; Janzer, A; Christian, S; Muller, T; Sheikh, SE; Sykes, DB; Ferrara, SJ; Krober, M; Merz, C; Niehues, M; Schafer, M; Zimmermann, K; Nising, CF; Gradl, SN; Nguyen, D; Eis, K; Gunther, J; Stellfeld, T; Janzer, A; Christian, S; Muller, T; Sheikh, SE; Zhou, HJ; Zhao, C; Sykes, DB; Ferrara, SJ; Liu, K; Krober, M; Merz, C; Niehues, M; Schafer, M; Zimmermann, K; Nising, CF

> <Link to Ligand in BindingDB>
http://www.bindingdb.org/bind/chemsearch/marvin/MolStructure.jsp?monomerid=470427

> <Link to Ligand-Target Pair in BindingDB>
http://www.bindingdb.org/jsp/dbsearch/PrimarySearch_ki.jsp?energyterm=kJ/mole&tag=r21&monomerid=470427&enzyme=Dihydroorotate+dehydrogenase&column=ki&startPg=0&Increment=50&submit=Search

> <PubChem CID>
134470391

> <PubChem SID>
441609604

$$$$

  Mrv2115 07222212352D          

 30 33  0  0  0  0            999 V2000
    0.8838   -2.1500    0.0000 C   0  0  0  0  0  0  0  0  0  0  0  0
    1.1387   -1.3654    0.0000 N   0  0  0  0  0  0  0  0  0  0  0  0
    0.6538   -0.6979    0.0000 C   0  0  0  0  0  0  0  0  0  0  0  0
   -0.1712   -0.6979    0.0000 O   0  0  0  0  0  0  0  0  0  0  0  0
    1.1387   -0.0305    0.0000 C   0  0  0  0  0  0  0  0  0  0  0  0
    0.8838    0.7541    0.0000 C   0  0  0  0  0  0  0  0  0  0  0  0
    1.4358    1.3672    0.0000 O   0  0  0  0  0  0  0  0  0  0  0  0
    0.0768    0.9256    0.0000 N   0  0  0  0  0  0  0  0  0  0  0  0
   -0.1781    1.7103    0.0000 C   0  0  0  0  0  0  0  0  0  0  0  0
   -0.9851    1.8818    0.0000 C   0  0  0  0  0  0  0  0  0  0  0  0
   -1.5371    1.2687    0.0000 F   0  0  0  0  0  0  0  0  0  0  0  0
   -1.2400    2.6664    0.0000 C   0  0  0  0  0  0  0  0  0  0  0  0
   -2.0470    2.8379    0.0000 F   0  0  0  0  0  0  0  0  0  0  0  0
   -0.6880    3.2795    0.0000 C   0  0  0  0  0  0  0  0  0  0  0  0
   -0.9429    4.0641    0.0000 C   0  0  0  0  0  0  0  0  0  0  0  0
   -1.7499    4.2357    0.0000 C   0  0  0  0  0  0  0  0  0  0  0  0
   -2.0049    5.0203    0.0000 C   0  0  0  0  0  0  0  0  0  0  0  0
   -1.4528    5.6334    0.0000 C   0  0  0  0  0  0  0  0  0  0  0  0
   -0.6459    5.4618    0.0000 C   0  0  0  0  0  0  0  0  0  0  0  0
   -0.3909    4.6772    0.0000 C   0  0  0  0  0  0  0  0  0  0  0  0
    0.1190    3.1080    0.0000 C   0  0  0  0  0  0  0  0  0  0  0  0
    0.6710    3.7211    0.0000 F   0  0  0  0  0  0  0  0  0  0  0  0
    0.3739    2.3234    0.0000 C   0  0  0  0  0  0  0  0  0  0  0  0
    1.1809    2.1518    0.0000 F   0  0  0  0  0  0  0  0  0  0  0  0
    1.9233   -0.2854    0.0000 C   0  0  0  0  0  0  0  0  0  0  0  0
    2.6378    0.1271    0.0000 C   0  0  0  0  0  0  0  0  0  0  0  0
    3.3523   -0.2854    0.0000 C   0  0  0  0  0  0  0  0  0  0  0  0
    3.3523   -1.1104    0.0000 C   0  0  0  0  0  0  0  0  0  0  0  0
    2.6378   -1.5229    0.0000 C   0  0  0  0  0  0  0  0  0  0  0  0
    1.9233   -1.1104    0.0000 N   0  0  0  0  0  0  0  0  0  0  0  0
  1  2  1  0  0  0  0
  2  3  4  0  0  0  0
  3  4  2  0  0  0  0
  3  5  4  0  0  0  0
  5  6  1  0  0  0  0
  6  7  2  0  0  0  0
  6  8  1  0  0  0  0
  8  9  1  0  0  0  0
  9 10  4  0  0  0  0
 10 11  1  0  0  0  0
 10 12  4  0  0  0  0
 12 13  1  0  0  0  0
 12 14  4  0  0  0  0
 14 15  1  0  0  0  0
 15 16  4  0  0  0  0
 16 17  4  0  0  0  0
 17 18  4  0  0  0  0
 18 19  4  0  0  0  0
 19 20  4  0  0  0  0
 15 20  4  0  0  0  0
 14 21  4  0  0  0  0
 21 22  1  0  0  0  0
 21 23  4  0  0  0  0
  9 23  4  0  0  0  0
 23 24  1  0  0  0  0
  5 25  4  0  0  0  0
 25 26  4  0  0  0  0
 26 27  4  0  0  0  0
 27 28  4  0  0  0  0
 28 29  4  0  0  0  0
 29 30  4  0  0  0  0
 25 30  4  0  0  0  0
  2 30  4  0  0  0  0
M  END
> <IC50(uM)>
5.0

> <Outcome>
0.0

> <BindingDB ID>
50990487

> <BindingDB MonomerID>
50281173

> <BindingDB Ligand Name>
CHEMBL4169359

> <Curation/DataSource>
ChEMBL

> <Article DOI>
10.1021/acs.jmedchem.8b00373

> <PMID>
29939742

> <Patent Number>
?

> <Authors>
Sainas, S; Pippione, AC; Lupino, E; Giorgis, M; Circosta, P; Gaidano, V; Goyal, P; Bonanni, D; Rolando, B; Cignetti, A; Ducime, A; Andersson, M; J??rv??, M; Friemann, R; Piccinini, M; Ramondetti, C; Buccinn??, B; Al-Karadaghi, S; Boschi, D; Saglio, G; Lolli, ML

> <Link to Ligand in BindingDB>
http://www.bindingdb.org/bind/chemsearch/marvin/MolStructure.jsp?monomerid=50281173

> <Link to Ligand-Target Pair in BindingDB>
http://www.bindingdb.org/jsp/dbsearch/PrimarySearch_ki.jsp?energyterm=kJ/mole&tag=r21&monomerid=50281173&enzyme=Dihydroorotate+dehydrogenase&column=ki&startPg=0&Increment=50&submit=Search

> <PubChem CID>
145953041

> <PubChem SID>
104122877

$$$$

  Mrv2115 07222212352D          

 25 28  0  0  0  0            999 V2000
    2.1434   -2.8875    0.0000 O   0  0  0  0  0  0  0  0  0  0  0  0
    1.4289   -2.4750    0.0000 C   0  0  0  0  0  0  0  0  0  0  0  0
    0.7145   -2.8875    0.0000 O   0  0  0  0  0  0  0  0  0  0  0  0
    1.4289   -1.6500    0.0000 C   0  0  0  0  0  0  0  0  0  0  0  0
    0.7145   -1.2375    0.0000 C   0  0  0  0  0  0  0  0  0  0  0  0
    0.7145   -0.4125    0.0000 C   0  0  0  0  0  0  0  0  0  0  0  0
    0.0000    0.0000    0.0000 C   0  0  0  0  0  0  0  0  0  0  0  0
   -0.7145   -0.4125    0.0000 C   0  0  0  0  0  0  0  0  0  0  0  0
   -1.4289    0.0000    0.0000 C   0  0  0  0  0  0  0  0  0  0  0  0
   -1.4289    0.8250    0.0000 C   0  0  0  0  0  0  0  0  0  0  0  0
   -2.1434    1.2375    0.0000 C   0  0  0  0  0  0  0  0  0  0  0  0
   -2.8579    0.8250    0.0000 C   0  0  0  0  0  0  0  0  0  0  0  0
   -3.5724    1.2375    0.0000 C   0  0  0  0  0  0  0  0  0  0  0  0
   -3.5724    2.0625    0.0000 C   0  0  0  0  0  0  0  0  0  0  0  0
   -2.8579    2.4750    0.0000 C   0  0  0  0  0  0  0  0  0  0  0  0
   -2.1434    2.0625    0.0000 N   0  0  0  0  0  0  0  0  0  0  0  0
   -0.7145    1.2375    0.0000 C   0  0  0  0  0  0  0  0  0  0  0  0
    0.0000    0.8250    0.0000 C   0  0  0  0  0  0  0  0  0  0  0  0
    1.4289    0.0000    0.0000 N   0  0  0  0  0  0  0  0  0  0  0  0
    2.1434   -0.4125    0.0000 C   0  0  0  0  0  0  0  0  0  0  0  0
    2.8579    0.0000    0.0000 C   0  0  0  0  0  0  0  0  0  0  0  0
    3.5724   -0.4125    0.0000 C   0  0  0  0  0  0  0  0  0  0  0  0
    3.5724   -1.2375    0.0000 C   0  0  0  0  0  0  0  0  0  0  0  0
    2.8579   -1.6500    0.0000 C   0  0  0  0  0  0  0  0  0  0  0  0
    2.1434   -1.2375    0.0000 C   0  0  0  0  0  0  0  0  0  0  0  0
  1  2  2  0  0  0  0
  2  3  1  0  0  0  0
  2  4  1  0  0  0  0
  4  5  4  0  0  0  0
  5  6  4  0  0  0  0
  6  7  1  0  0  0  0
  7  8  4  0  0  0  0
  8  9  4  0  0  0  0
  9 10  4  0  0  0  0
 10 11  1  0  0  0  0
 11 12  4  0  0  0  0
 12 13  4  0  0  0  0
 13 14  4  0  0  0  0
 14 15  4  0  0  0  0
 15 16  4  0  0  0  0
 11 16  4  0  0  0  0
 10 17  4  0  0  0  0
 17 18  4  0  0  0  0
  7 18  4  0  0  0  0
  6 19  4  0  0  0  0
 19 20  4  0  0  0  0
 20 21  4  0  0  0  0
 21 22  4  0  0  0  0
 22 23  4  0  0  0  0
 23 24  4  0  0  0  0
 24 25  4  0  0  0  0
  4 25  4  0  0  0  0
 20 25  4  0  0  0  0
M  END
> <IC50(uM)>
10.1

> <Outcome>
0.0

> <BindingDB ID>
51126178

> <BindingDB MonomerID>
50461865

> <BindingDB Ligand Name>
CHEMBL4225626

> <Curation/DataSource>
ChEMBL

> <Article DOI>
10.1021/acs.jmedchem.7b01862

> <PMID>
29727569

> <Patent Number>
?

> <Authors>
Madak, JT; Cuthbertson, CR; Miyata, Y; Tamura, S; Petrunak, EM; Stuckey, JA; Han, Y; He, M; Sun, D; Showalter, HD; Neamati, N

> <Link to Ligand in BindingDB>
http://www.bindingdb.org/bind/chemsearch/marvin/MolStructure.jsp?monomerid=50461865

> <Link to Ligand-Target Pair in BindingDB>
http://www.bindingdb.org/jsp/dbsearch/PrimarySearch_ki.jsp?energyterm=kJ/mole&tag=r21&monomerid=50461865&enzyme=Dihydroorotate+dehydrogenase&column=ki&startPg=0&Increment=50&submit=Search

> <PubChem CID>
145969000

> <PubChem SID>
433929130

$$$$

  Mrv2115 07222212352D          

 24 27  0  0  0  0            999 V2000
    1.9457   -4.4410    0.0000 O   0  0  0  0  0  0  0  0  0  0  0  0
    1.1387   -4.2695    0.0000 C   0  0  0  0  0  0  0  0  0  0  0  0
    0.5867   -4.8826    0.0000 N   0  0  0  0  0  0  0  0  0  0  0  0
    0.8416   -5.6672    0.0000 C   0  0  0  0  0  0  0  0  0  0  0  0
    1.4547   -6.2193    0.0000 C   0  0  0  0  0  0  0  0  0  0  0  0
    0.6701   -6.4742    0.0000 C   0  0  0  0  0  0  0  0  0  0  0  0
    0.8838   -3.4849    0.0000 C   0  0  0  0  0  0  0  0  0  0  0  0
    0.0992   -3.2299    0.0000 C   0  0  0  0  0  0  0  0  0  0  0  0
    0.0992   -2.4049    0.0000 C   0  0  0  0  0  0  0  0  0  0  0  0
    0.8838   -2.1500    0.0000 C   0  0  0  0  0  0  0  0  0  0  0  0
    1.1387   -1.3654    0.0000 N   0  0  0  0  0  0  0  0  0  0  0  0
    0.6538   -0.6979    0.0000 C   0  0  0  0  0  0  0  0  0  0  0  0
    1.1387   -0.0305    0.0000 N   0  0  0  0  0  0  0  0  0  0  0  0
    1.9233   -0.2854    0.0000 C   0  0  0  0  0  0  0  0  0  0  0  0
    2.6378    0.1271    0.0000 C   0  0  0  0  0  0  0  0  0  0  0  0
    3.3523   -0.2854    0.0000 C   0  0  0  0  0  0  0  0  0  0  0  0
    4.0668    0.1271    0.0000 C   0  0  0  0  0  0  0  0  0  0  0  0
    4.7812    0.5396    0.0000 F   0  0  0  0  0  0  0  0  0  0  0  0
    4.4793   -0.5874    0.0000 F   0  0  0  0  0  0  0  0  0  0  0  0
    3.6543    0.8415    0.0000 F   0  0  0  0  0  0  0  0  0  0  0  0
    3.3523   -1.1104    0.0000 C   0  0  0  0  0  0  0  0  0  0  0  0
    2.6378   -1.5229    0.0000 C   0  0  0  0  0  0  0  0  0  0  0  0
    1.9233   -1.1104    0.0000 C   0  0  0  0  0  0  0  0  0  0  0  0
    1.3687   -2.8174    0.0000 S   0  0  0  0  0  0  0  0  0  0  0  0
  1  2  2  0  0  0  0
  2  3  1  0  0  0  0
  3  4  1  0  0  0  0
  4  5  1  0  0  0  0
  5  6  1  0  0  0  0
  4  6  1  0  0  0  0
  2  7  1  0  0  0  0
  7  8  4  0  0  0  0
  8  9  4  0  0  0  0
  9 10  4  0  0  0  0
 10 11  1  0  0  0  0
 11 12  4  0  0  0  0
 12 13  4  0  0  0  0
 13 14  4  0  0  0  0
 14 15  4  0  0  0  0
 15 16  4  0  0  0  0
 16 17  1  0  0  0  0
 17 18  1  0  0  0  0
 17 19  1  0  0  0  0
 17 20  1  0  0  0  0
 16 21  4  0  0  0  0
 21 22  4  0  0  0  0
 22 23  4  0  0  0  0
 14 23  4  0  0  0  0
 11 23  4  0  0  0  0
 10 24  4  0  0  0  0
  7 24  4  0  0  0  0
M  END
> <IC50(uM)>
17.2

> <Outcome>
0.0

> <BindingDB ID>
50924673

> <BindingDB MonomerID>
50379154

> <BindingDB Ligand Name>
CHEMBL2012965

> <Curation/DataSource>
ChEMBL

> <Article DOI>
10.1021/ml200143c

> <PMID>
24900364

> <Patent Number>
?

> <Authors>
Skerlj, RT; Bastos, CM; Booker, ML; Kramer, ML; Barker, RH; Celatka, CA; Munoz, B; Sidhu, AB; Cortese, JF; Wittlin, S; Papastogiannidis, P; Angulo-Barturen, I; Jimenez-Diaz, MB; Sybertz, E

> <Link to Ligand in BindingDB>
http://www.bindingdb.org/bind/chemsearch/marvin/MolStructure.jsp?monomerid=50379154

> <Link to Ligand-Target Pair in BindingDB>
http://www.bindingdb.org/jsp/dbsearch/PrimarySearch_ki.jsp?energyterm=kJ/mole&tag=r21&monomerid=50379154&enzyme=Dihydroorotate+dehydrogenase&column=ki&startPg=0&Increment=50&submit=Search

> <PubChem CID>
70689508

> <PubChem SID>
160858237

$$$$

  Mrv2115 07222212352D          

 33 35  0  0  0  0            999 V2000
    2.1434   -3.7125    0.0000 C   0  0  0  0  0  0  0  0  0  0  0  0
    2.8579   -4.1250    0.0000 C   0  0  0  0  0  0  0  0  0  0  0  0
    3.5724   -3.7125    0.0000 C   0  0  0  0  0  0  0  0  0  0  0  0
    4.2868   -4.1250    0.0000 C   0  0  0  0  0  0  0  0  0  0  0  0
    4.2868   -4.9500    0.0000 C   0  0  0  0  0  0  0  0  0  0  0  0
    5.0013   -3.7125    0.0000 O   0  0  0  0  0  0  0  0  0  0  0  0
    5.0013   -2.8875    0.0000 C   0  0  0  0  0  0  0  0  0  0  0  0
    4.2868   -2.4750    0.0000 C   0  0  0  0  0  0  0  0  0  0  0  0
    4.2868   -1.6500    0.0000 C   0  0  0  0  0  0  0  0  0  0  0  0
    3.5724   -1.2375    0.0000 N   0  0  0  0  0  0  0  0  0  0  0  0
    2.8187   -1.5731    0.0000 N   0  0  0  0  0  0  0  0  0  0  0  0
    2.2666   -0.9600    0.0000 C   0  0  0  0  0  0  0  0  0  0  0  0
    1.4462   -1.0462    0.0000 C   0  0  0  0  0  0  0  0  0  0  0  0
    1.1106   -1.7999    0.0000 O   0  0  0  0  0  0  0  0  0  0  0  0
    2.6791   -0.2455    0.0000 N   0  0  0  0  0  0  0  0  0  0  0  0
    2.3436    0.5082    0.0000 C   0  0  0  0  0  0  0  0  0  0  0  0
    3.4861   -0.4170    0.0000 C   0  0  0  0  0  0  0  0  0  0  0  0
    4.0992    0.1350    0.0000 O   0  0  0  0  0  0  0  0  0  0  0  0
    5.0013   -1.2375    0.0000 C   0  0  0  0  0  0  0  0  0  0  0  0
    5.0013   -0.4125    0.0000 F   0  0  0  0  0  0  0  0  0  0  0  0
    5.7158   -1.6500    0.0000 C   0  0  0  0  0  0  0  0  0  0  0  0
    5.7158   -2.4750    0.0000 C   0  0  0  0  0  0  0  0  0  0  0  0
    6.4302   -2.8875    0.0000 C   0  0  0  0  0  0  0  0  0  0  0  0
    6.4302   -3.7125    0.0000 O   0  0  0  0  0  0  0  0  0  0  0  0
    7.1447   -2.4750    0.0000 N   0  0  0  0  0  0  0  0  0  0  0  0
    7.8592   -2.8875    0.0000 C   0  0  0  0  0  0  0  0  0  0  0  0
    8.5737   -2.4750    0.0000 C   0  0  0  0  0  0  0  0  0  0  0  0
    8.5737   -1.6500    0.0000 C   0  0  0  0  0  0  0  0  0  0  0  0
    9.2881   -2.8875    0.0000 C   0  0  0  0  0  0  0  0  0  0  0  0
    9.2881   -3.7125    0.0000 C   0  0  0  0  0  0  0  0  0  0  0  0
    8.5737   -4.1250    0.0000 C   0  0  0  0  0  0  0  0  0  0  0  0
    7.8592   -3.7125    0.0000 C   0  0  0  0  0  0  0  0  0  0  0  0
    7.1447   -4.1250    0.0000 F   0  0  0  0  0  0  0  0  0  0  0  0
  1  2  1  0  0  0  0
  2  3  1  0  0  0  0
  3  4  1  0  0  0  0
  4  5  1  0  0  0  0
  4  6  1  0  0  0  0
  6  7  1  0  0  0  0
  7  8  4  0  0  0  0
  8  9  4  0  0  0  0
  9 10  1  0  0  0  0
 10 11  4  0  0  0  0
 11 12  4  0  0  0  0
 12 13  1  0  0  0  0
 13 14  1  0  0  0  0
 12 15  4  0  0  0  0
 15 16  1  0  0  0  0
 15 17  4  0  0  0  0
 10 17  4  0  0  0  0
 17 18  2  0  0  0  0
  9 19  4  0  0  0  0
 19 20  1  0  0  0  0
 19 21  4  0  0  0  0
 21 22  4  0  0  0  0
  7 22  4  0  0  0  0
 22 23  1  0  0  0  0
 23 24  2  0  0  0  0
 23 25  1  0  0  0  0
 25 26  1  0  0  0  0
 26 27  4  0  0  0  0
 27 28  1  0  0  0  0
 27 29  4  0  0  0  0
 29 30  4  0  0  0  0
 30 31  4  0  0  0  0
 31 32  4  0  0  0  0
 26 32  4  0  0  0  0
 32 33  1  0  0  0  0
M  END
> <IC50(uM)>
0.0075

> <Outcome>
1.0

> <BindingDB ID>
972599; 1098753

> <BindingDB MonomerID>
470478

> <BindingDB Ligand Name>
5-fluoro-N-(2-fluoro-6-methylphenyl)-4-[3-(hydroxymethyl)-4-methyl-5-oxo-4,5-dihydro-1H-1,2,4-triazol-1-yl]-2-[(2S)-pentan-2-yloxy]benzamide::US10815215, Example 141; 5-fluoro-N-(2-fluoro-6-methylphenyl)-4-[3-(hydroxymethyl)-4-methyl-5-oxo-4,5-dihydro-1H-1,2,4-triazol-1-yl]-2-[(2S)-pentan-2-yloxy]benzamide::US10815215, Example 141::US11130745, Example 141

> <Curation/DataSource>
US Patent

> <Article DOI>
?

> <PMID>
?

> <Patent Number>
US10815215; US11130745

> <Authors>
Gradl, SN; Nguyen, D; Eis, K; Gunther, J; Stellfeld, T; Janzer, A; Christian, S; Muller, T; Sheikh, SE; Zhou, HJ; Zhao, C; Sykes, DB; Ferrara, SJ; Liu, K; Krober, M; Merz, C; Niehues, M; Schafer, M; Zimmermann, K; Nising, CF; Gradl, SN; Nguyen, D; Eis, K; Gunther, J; Stellfeld, T; Janzer, A; Christian, S; Muller, T; Sheikh, SE; Sykes, DB; Ferrara, SJ; Krober, M; Merz, C; Niehues, M; Schafer, M; Zimmermann, K; Nising, CF

> <Link to Ligand in BindingDB>
http://www.bindingdb.org/bind/chemsearch/marvin/MolStructure.jsp?monomerid=470478

> <Link to Ligand-Target Pair in BindingDB>
http://www.bindingdb.org/jsp/dbsearch/PrimarySearch_ki.jsp?energyterm=kJ/mole&tag=r21&monomerid=470478&enzyme=Dihydroorotate+dehydrogenase&column=ki&startPg=0&Increment=50&submit=Search

> <PubChem CID>
134470164

> <PubChem SID>
441609655

$$$$

  Mrv2115 07222212352D          

 27 31  0  0  0  0            999 V2000
    3.3523   -0.2854    0.0000 O   0  0  0  0  0  0  0  0  0  0  0  0
    3.3523   -1.1104    0.0000 C   0  0  0  0  0  0  0  0  0  0  0  0
    4.0668   -1.5229    0.0000 C   0  0  0  0  0  0  0  0  0  0  0  0
    4.7812   -1.1104    0.0000 C   0  0  0  0  0  0  0  0  0  0  0  0
    5.4957   -1.5229    0.0000 C   0  0  0  0  0  0  0  0  0  0  0  0
    5.4957   -2.3479    0.0000 C   0  0  0  0  0  0  0  0  0  0  0  0
    4.7812   -2.7604    0.0000 C   0  0  0  0  0  0  0  0  0  0  0  0
    4.0668   -2.3479    0.0000 C   0  0  0  0  0  0  0  0  0  0  0  0
    3.3523   -2.7604    0.0000 C   0  0  0  0  0  0  0  0  0  0  0  0
    3.3523   -3.5854    0.0000 O   0  0  0  0  0  0  0  0  0  0  0  0
    2.6378   -2.3479    0.0000 C   0  0  0  0  0  0  0  0  0  0  0  0
    2.6378   -1.5229    0.0000 C   0  0  0  0  0  0  0  0  0  0  0  0
    1.8532   -1.2680    0.0000 N   0  0  0  0  0  0  0  0  0  0  0  0
    1.3683   -1.9354    0.0000 N   0  0  0  0  0  0  0  0  0  0  0  0
    1.8532   -2.6029    0.0000 N   0  0  0  0  0  0  0  0  0  0  0  0
    1.5983   -3.3875    0.0000 C   0  0  0  0  0  0  0  0  0  0  0  0
    2.1503   -4.0006    0.0000 C   0  0  0  0  0  0  0  0  0  0  0  0
    1.8953   -4.7852    0.0000 C   0  0  0  0  0  0  0  0  0  0  0  0
    1.0884   -4.9567    0.0000 C   0  0  0  0  0  0  0  0  0  0  0  0
    0.8334   -5.7414    0.0000 C   0  0  0  0  0  0  0  0  0  0  0  0
    1.3855   -6.3545    0.0000 C   0  0  0  0  0  0  0  0  0  0  0  0
    1.1305   -7.1391    0.0000 C   0  0  0  0  0  0  0  0  0  0  0  0
    0.3236   -7.3106    0.0000 C   0  0  0  0  0  0  0  0  0  0  0  0
   -0.2285   -6.6975    0.0000 N   0  0  0  0  0  0  0  0  0  0  0  0
    0.0265   -5.9129    0.0000 C   0  0  0  0  0  0  0  0  0  0  0  0
    0.5363   -4.3437    0.0000 C   0  0  0  0  0  0  0  0  0  0  0  0
    0.7913   -3.5590    0.0000 C   0  0  0  0  0  0  0  0  0  0  0  0
  1  2  2  0  0  0  0
  2  3  1  0  0  0  0
  3  4  4  0  0  0  0
  4  5  4  0  0  0  0
  5  6  4  0  0  0  0
  6  7  4  0  0  0  0
  7  8  4  0  0  0  0
  3  8  4  0  0  0  0
  8  9  1  0  0  0  0
  9 10  2  0  0  0  0
  9 11  1  0  0  0  0
 11 12  4  0  0  0  0
  2 12  1  0  0  0  0
 12 13  4  0  0  0  0
 13 14  4  0  0  0  0
 14 15  4  0  0  0  0
 11 15  4  0  0  0  0
 15 16  1  0  0  0  0
 16 17  4  0  0  0  0
 17 18  4  0  0  0  0
 18 19  4  0  0  0  0
 19 20  1  0  0  0  0
 20 21  4  0  0  0  0
 21 22  4  0  0  0  0
 22 23  4  0  0  0  0
 23 24  4  0  0  0  0
 24 25  4  0  0  0  0
 20 25  4  0  0  0  0
 19 26  4  0  0  0  0
 26 27  4  0  0  0  0
 16 27  4  0  0  0  0
M  END
> <IC50(uM)>
0.422

> <Outcome>
1.0

> <BindingDB ID>
51338177

> <BindingDB MonomerID>
50541651

> <BindingDB Ligand Name>
CHEMBL4642049

> <Curation/DataSource>
ChEMBL

> <Article DOI>
10.1021/acs.jmedchem.0c00512

> <PMID>
32496056

> <Patent Number>
?

> <Authors>
Zuo, Z; Liu, X; Qian, X; Zeng, T; Sang, N; Liu, H; Zhou, Y; Tao, L; Zhou, X; Su, N; Yu, Y; Chen, Q; Luo, Y; Zhao, Y

> <Link to Ligand in BindingDB>
http://www.bindingdb.org/bind/chemsearch/marvin/MolStructure.jsp?monomerid=50541651

> <Link to Ligand-Target Pair in BindingDB>
http://www.bindingdb.org/jsp/dbsearch/PrimarySearch_ki.jsp?energyterm=kJ/mole&tag=r21&monomerid=50541651&enzyme=Dihydroorotate+dehydrogenase&column=ki&startPg=0&Increment=50&submit=Search

> <PubChem CID>
156016115

> <PubChem SID>
442143214

$$$$

  Mrv2115 07222212352D          

 28 31  0  0  0  0            999 V2000
    2.1434   -2.8875    0.0000 O   0  0  0  0  0  0  0  0  0  0  0  0
    1.4289   -2.4750    0.0000 C   0  0  0  0  0  0  0  0  0  0  0  0
    0.7145   -2.8875    0.0000 O   0  0  0  0  0  0  0  0  0  0  0  0
    1.4289   -1.6500    0.0000 C   0  0  0  0  0  0  0  0  0  0  0  0
    0.7145   -1.2375    0.0000 C   0  0  0  0  0  0  0  0  0  0  0  0
    0.0000   -1.6500    0.0000 O   0  0  0  0  0  0  0  0  0  0  0  0
    0.7145   -0.4125    0.0000 C   0  0  0  0  0  0  0  0  0  0  0  0
    0.0000    0.0000    0.0000 C   0  0  0  0  0  0  0  0  0  0  0  0
   -0.7145   -0.4125    0.0000 C   0  0  0  0  0  0  0  0  0  0  0  0
   -1.4289    0.0000    0.0000 C   0  0  0  0  0  0  0  0  0  0  0  0
   -1.4289    0.8250    0.0000 C   0  0  0  0  0  0  0  0  0  0  0  0
   -2.1434    1.2375    0.0000 S   0  0  0  0  0  0  0  0  0  0  0  0
   -2.1434    2.0625    0.0000 C   0  0  0  0  0  0  0  0  0  0  0  0
   -2.8579    2.4750    0.0000 C   0  0  0  0  0  0  0  0  0  0  0  0
   -2.8579    3.3000    0.0000 C   0  0  0  0  0  0  0  0  0  0  0  0
   -2.1434    3.7125    0.0000 C   0  0  0  0  0  0  0  0  0  0  0  0
   -1.4289    3.3000    0.0000 C   0  0  0  0  0  0  0  0  0  0  0  0
   -1.4289    2.4750    0.0000 C   0  0  0  0  0  0  0  0  0  0  0  0
   -0.7145    1.2375    0.0000 C   0  0  0  0  0  0  0  0  0  0  0  0
    0.0000    0.8250    0.0000 C   0  0  0  0  0  0  0  0  0  0  0  0
    1.4289    0.0000    0.0000 N   0  0  0  0  0  0  0  0  0  0  0  0
    2.1434   -0.4125    0.0000 C   0  0  0  0  0  0  0  0  0  0  0  0
    2.8579    0.0000    0.0000 C   0  0  0  0  0  0  0  0  0  0  0  0
    3.5724   -0.4125    0.0000 C   0  0  0  0  0  0  0  0  0  0  0  0
    3.5724   -1.2375    0.0000 C   0  0  0  0  0  0  0  0  0  0  0  0
    4.2868   -1.6500    0.0000 F   0  0  0  0  0  0  0  0  0  0  0  0
    2.8579   -1.6500    0.0000 C   0  0  0  0  0  0  0  0  0  0  0  0
    2.1434   -1.2375    0.0000 C   0  0  0  0  0  0  0  0  0  0  0  0
  1  2  2  0  0  0  0
  2  3  1  0  0  0  0
  2  4  1  0  0  0  0
  4  5  4  0  0  0  0
  5  6  1  0  0  0  0
  5  7  4  0  0  0  0
  7  8  1  0  0  0  0
  8  9  4  0  0  0  0
  9 10  4  0  0  0  0
 10 11  4  0  0  0  0
 11 12  1  0  0  0  0
 12 13  1  0  0  0  0
 13 14  4  0  0  0  0
 14 15  4  0  0  0  0
 15 16  4  0  0  0  0
 16 17  4  0  0  0  0
 17 18  4  0  0  0  0
 13 18  4  0  0  0  0
 11 19  4  0  0  0  0
 19 20  4  0  0  0  0
  8 20  4  0  0  0  0
  7 21  4  0  0  0  0
 21 22  4  0  0  0  0
 22 23  4  0  0  0  0
 23 24  4  0  0  0  0
 24 25  4  0  0  0  0
 25 26  1  0  0  0  0
 25 27  4  0  0  0  0
 27 28  4  0  0  0  0
  4 28  4  0  0  0  0
 22 28  4  0  0  0  0
M  END
> <IC50(uM)>
0.018

> <Outcome>
1.0

> <BindingDB ID>
50841909

> <BindingDB MonomerID>
50201939

> <BindingDB Ligand Name>
6-fluoro-3-hydroxy-2-(4-(phenylthio)phenyl)quinoline-4-carboxylic acid::CHEMBL218085

> <Curation/DataSource>
ChEMBL

> <Article DOI>
10.1021/jm0602256

> <PMID>
17201408

> <Patent Number>
?

> <Authors>
Kaila, N; Janz, K; DeBernardo, S; Bedard, PW; Camphausen, RT; Tam, S; Tsao, DH; Keith, JC; Nickerson-Nutter, C; Shilling, A; Young-Sciame, R; Wang, Q

> <Link to Ligand in BindingDB>
http://www.bindingdb.org/bind/chemsearch/marvin/MolStructure.jsp?monomerid=50201939

> <Link to Ligand-Target Pair in BindingDB>
http://www.bindingdb.org/jsp/dbsearch/PrimarySearch_ki.jsp?energyterm=kJ/mole&tag=r21&monomerid=50201939&enzyme=Dihydroorotate+dehydrogenase&column=ki&startPg=0&Increment=50&submit=Search

> <PubChem CID>
14498179

> <PubChem SID>
104081590

$$$$

  Mrv2115 07222212352D          

 34 37  0  0  0  0            999 V2000
   -0.6284    2.1599    0.0000 C   0  0  0  0  0  0  0  0  0  0  0  0
   -1.4534    2.1599    0.0000 C   0  0  0  0  0  0  0  0  0  0  0  0
   -1.8659    1.4455    0.0000 C   0  0  0  0  0  0  0  0  0  0  0  0
   -2.6909    1.4455    0.0000 C   0  0  0  0  0  0  0  0  0  0  0  0
   -3.1034    2.1599    0.0000 C   0  0  0  0  0  0  0  0  0  0  0  0
   -3.1034    0.7310    0.0000 O   0  0  0  0  0  0  0  0  0  0  0  0
   -2.6909    0.0165    0.0000 C   0  0  0  0  0  0  0  0  0  0  0  0
   -1.8659    0.0165    0.0000 C   0  0  0  0  0  0  0  0  0  0  0  0
   -1.4534   -0.6979    0.0000 C   0  0  0  0  0  0  0  0  0  0  0  0
   -0.6284   -0.6979    0.0000 N   0  0  0  0  0  0  0  0  0  0  0  0
   -0.1435   -1.3654    0.0000 N   0  0  0  0  0  0  0  0  0  0  0  0
    0.6411   -1.1104    0.0000 C   0  0  0  0  0  0  0  0  0  0  0  0
    0.6411   -0.2854    0.0000 N   0  0  0  0  0  0  0  0  0  0  0  0
   -0.1435   -0.0305    0.0000 C   0  0  0  0  0  0  0  0  0  0  0  0
   -0.3984    0.7541    0.0000 O   0  0  0  0  0  0  0  0  0  0  0  0
    1.3556    0.1271    0.0000 C   0  0  0  0  0  0  0  0  0  0  0  0
    2.0701   -0.2854    0.0000 C   0  0  0  0  0  0  0  0  0  0  0  0
    2.0701   -1.1104    0.0000 O   0  0  0  0  0  0  0  0  0  0  0  0
    1.3556   -1.5229    0.0000 C   0  0  0  0  0  0  0  0  0  0  0  0
   -1.8659   -1.4124    0.0000 C   0  0  0  0  0  0  0  0  0  0  0  0
   -1.4534   -2.1269    0.0000 F   0  0  0  0  0  0  0  0  0  0  0  0
   -2.6909   -1.4124    0.0000 C   0  0  0  0  0  0  0  0  0  0  0  0
   -3.1034   -0.6979    0.0000 C   0  0  0  0  0  0  0  0  0  0  0  0
   -3.9284   -0.6979    0.0000 C   0  0  0  0  0  0  0  0  0  0  0  0
   -4.3409    0.0165    0.0000 O   0  0  0  0  0  0  0  0  0  0  0  0
   -4.3409   -1.4124    0.0000 N   0  0  0  0  0  0  0  0  0  0  0  0
   -5.1659   -1.4124    0.0000 C   0  0  0  0  0  0  0  0  0  0  0  0
   -5.5784   -0.6979    0.0000 C   0  0  0  0  0  0  0  0  0  0  0  0
   -5.1659    0.0165    0.0000 F   0  0  0  0  0  0  0  0  0  0  0  0
   -6.4034   -0.6979    0.0000 C   0  0  0  0  0  0  0  0  0  0  0  0
   -6.8159   -1.4124    0.0000 C   0  0  0  0  0  0  0  0  0  0  0  0
   -6.4034   -2.1269    0.0000 C   0  0  0  0  0  0  0  0  0  0  0  0
   -5.5784   -2.1269    0.0000 C   0  0  0  0  0  0  0  0  0  0  0  0
   -5.1659   -2.8414    0.0000 Cl  0  0  0  0  0  0  0  0  0  0  0  0
  1  2  1  0  0  0  0
  2  3  1  0  0  0  0
  3  4  1  0  0  0  0
  4  5  1  0  0  0  0
  4  6  1  0  0  0  0
  6  7  1  0  0  0  0
  7  8  4  0  0  0  0
  8  9  4  0  0  0  0
  9 10  1  0  0  0  0
 10 11  4  0  0  0  0
 11 12  4  0  0  0  0
 12 13  4  0  0  0  0
 13 14  4  0  0  0  0
 10 14  4  0  0  0  0
 14 15  2  0  0  0  0
 13 16  1  0  0  0  0
 16 17  1  0  0  0  0
 17 18  1  0  0  0  0
 18 19  1  0  0  0  0
 12 19  1  0  0  0  0
  9 20  4  0  0  0  0
 20 21  1  0  0  0  0
 20 22  4  0  0  0  0
 22 23  4  0  0  0  0
  7 23  4  0  0  0  0
 23 24  1  0  0  0  0
 24 25  2  0  0  0  0
 24 26  1  0  0  0  0
 26 27  1  0  0  0  0
 27 28  4  0  0  0  0
 28 29  1  0  0  0  0
 28 30  4  0  0  0  0
 30 31  4  0  0  0  0
 31 32  4  0  0  0  0
 32 33  4  0  0  0  0
 27 33  4  0  0  0  0
 33 34  1  0  0  0  0
M  END
> <IC50(uM)>
0.011

> <Outcome>
1.0

> <BindingDB ID>
1020605

> <BindingDB MonomerID>
490544

> <BindingDB Ligand Name>
N-(2-chloro-6-fluorophenyl)-5-fluoro-4-(3-oxo-5,6-dihydro-3H-[1,2,4]triazolo[3,4-c][1,4]oxazin-2(8H)-yl)-2-[(2S)-pentan-2-yloxy]benzamide::US10968216, Example 212

> <Curation/DataSource>
US Patent

> <Article DOI>
?

> <PMID>
?

> <Patent Number>
US10968216

> <Authors>
Gradl, SN; Nguyen, D; Eis, K; Gunther, J; Stellfeld, T; Janzer, A; Christian, S; Mueller, T; Sheikh, SE; Zhou, HJ; Zhao, C; Sykes, DB; Ferrara, SJ; Liu, K; Herbert, SA; Merz, C; Niehues, M; Nising, CF; Schafer, M; Zimmermann, K; Knablein, J; Thede, K; Faupel, T

> <Link to Ligand in BindingDB>
http://www.bindingdb.org/bind/chemsearch/marvin/MolStructure.jsp?monomerid=490544

> <Link to Ligand-Target Pair in BindingDB>
http://www.bindingdb.org/jsp/dbsearch/PrimarySearch_ki.jsp?energyterm=kJ/mole&tag=r21&monomerid=490544&enzyme=Dihydroorotate+dehydrogenase&column=ki&startPg=0&Increment=50&submit=Search

> <PubChem CID>
134474405

> <PubChem SID>
447117270

$$$$

  Mrv2115 07222212352D          

 25 27  0  0  0  0            999 V2000
    1.4289   -0.0000    0.0000 C   0  0  0  0  0  0  0  0  0  0  0  0
    0.7145   -0.4125    0.0000 N   0  0  0  0  0  0  0  0  0  0  0  0
    0.0000    0.0000    0.0000 N   0  0  0  0  0  0  0  0  0  0  0  0
   -0.7145   -0.4125    0.0000 C   0  0  0  0  0  0  0  0  0  0  0  0
   -1.4289    0.0000    0.0000 C   0  0  0  0  0  0  0  0  0  0  0  0
   -2.1434   -0.4125    0.0000 C   0  0  0  0  0  0  0  0  0  0  0  0
   -2.8579    0.0000    0.0000 C   0  0  0  0  0  0  0  0  0  0  0  0
   -2.8579    0.8250    0.0000 C   0  0  0  0  0  0  0  0  0  0  0  0
   -2.1434    1.2375    0.0000 C   0  0  0  0  0  0  0  0  0  0  0  0
   -1.4289    0.8250    0.0000 C   0  0  0  0  0  0  0  0  0  0  0  0
   -0.7145    1.2375    0.0000 C   0  0  0  0  0  0  0  0  0  0  0  0
    0.0000    0.8250    0.0000 O   0  0  0  0  0  0  0  0  0  0  0  0
   -0.7145    2.0625    0.0000 O   0  0  0  0  0  0  0  0  0  0  0  0
    0.7145   -1.2375    0.0000 C   0  0  0  0  0  0  0  0  0  0  0  0
    1.3819   -1.7224    0.0000 N   0  0  0  0  0  0  0  0  0  0  0  0
    1.1270   -2.5070    0.0000 C   0  0  0  0  0  0  0  0  0  0  0  0
    1.6119   -3.1745    0.0000 C   0  0  0  0  0  0  0  0  0  0  0  0
    2.4324   -3.0882    0.0000 C   0  0  0  0  0  0  0  0  0  0  0  0
    2.9173   -3.7557    0.0000 C   0  0  0  0  0  0  0  0  0  0  0  0
    2.5817   -4.5094    0.0000 C   0  0  0  0  0  0  0  0  0  0  0  0
    1.7613   -4.5956    0.0000 C   0  0  0  0  0  0  0  0  0  0  0  0
    1.2763   -3.9282    0.0000 C   0  0  0  0  0  0  0  0  0  0  0  0
    0.4559   -4.0144    0.0000 Cl  0  0  0  0  0  0  0  0  0  0  0  0
    0.3020   -2.5070    0.0000 C   0  0  0  0  0  0  0  0  0  0  0  0
    0.0470   -1.7224    0.0000 S   0  0  0  0  0  0  0  0  0  0  0  0
  1  2  1  0  0  0  0
  2  3  1  0  0  0  0
  3  4  2  0  0  0  0
  4  5  1  0  0  0  0
  5  6  4  0  0  0  0
  6  7  4  0  0  0  0
  7  8  4  0  0  0  0
  8  9  4  0  0  0  0
  9 10  4  0  0  0  0
  5 10  4  0  0  0  0
 10 11  1  0  0  0  0
 11 12  2  0  0  0  0
 11 13  1  0  0  0  0
  2 14  1  0  0  0  0
 14 15  4  0  0  0  0
 15 16  4  0  0  0  0
 16 17  1  0  0  0  0
 17 18  4  0  0  0  0
 18 19  4  0  0  0  0
 19 20  4  0  0  0  0
 20 21  4  0  0  0  0
 21 22  4  0  0  0  0
 17 22  4  0  0  0  0
 22 23  1  0  0  0  0
 16 24  4  0  0  0  0
 24 25  4  0  0  0  0
 14 25  4  0  0  0  0
M  END
> <IC50(uM)>
0.009699999999999999

> <Outcome>
1.0

> <BindingDB ID>
1001110

> <BindingDB MonomerID>
482796

> <BindingDB Ligand Name>
US10919869, No.  1

> <Curation/DataSource>
US Patent

> <Article DOI>
?

> <PMID>
?

> <Patent Number>
US10919869

> <Authors>
Li, H; Xu, Y; Wang, R; Zhao, Z; Song, W; Xu, L

> <Link to Ligand in BindingDB>
http://www.bindingdb.org/bind/chemsearch/marvin/MolStructure.jsp?monomerid=482796

> <Link to Ligand-Target Pair in BindingDB>
http://www.bindingdb.org/jsp/dbsearch/PrimarySearch_ki.jsp?energyterm=kJ/mole&tag=r21&monomerid=482796&enzyme=Dihydroorotate+dehydrogenase&column=ki&startPg=0&Increment=50&submit=Search

> <PubChem CID>
132157920

> <PubChem SID>
443551937

$$$$

  Mrv2115 07222212352D          

 40 44  0  0  0  0            999 V2000
   -3.7802   11.2089    0.0000 C   0  0  0  0  0  0  0  0  0  0  0  0
   -2.9597   11.1227    0.0000 C   0  0  0  0  0  0  0  0  0  0  0  0
   -2.6241   10.3690    0.0000 C   0  0  0  0  0  0  0  0  0  0  0  0
   -1.8171   10.1975    0.0000 N   0  0  0  0  0  0  0  0  0  0  0  0
   -1.7309    9.3770    0.0000 N   0  0  0  0  0  0  0  0  0  0  0  0
   -1.0164    8.9645    0.0000 C   0  0  0  0  0  0  0  0  0  0  0  0
   -0.3020    9.3770    0.0000 C   0  0  0  0  0  0  0  0  0  0  0  0
    0.4125    8.9645    0.0000 C   0  0  0  0  0  0  0  0  0  0  0  0
    1.1270    9.3770    0.0000 O   0  0  0  0  0  0  0  0  0  0  0  0
    1.1270   10.2020    0.0000 C   0  0  0  0  0  0  0  0  0  0  0  0
    0.4125   10.6145    0.0000 C   0  0  0  0  0  0  0  0  0  0  0  0
    1.8414   10.6145    0.0000 C   0  0  0  0  0  0  0  0  0  0  0  0
    1.8414   11.4395    0.0000 C   0  0  0  0  0  0  0  0  0  0  0  0
    2.5559   11.8520    0.0000 C   0  0  0  0  0  0  0  0  0  0  0  0
    3.2704   11.4395    0.0000 C   0  0  0  0  0  0  0  0  0  0  0  0
    3.2704   10.6145    0.0000 C   0  0  0  0  0  0  0  0  0  0  0  0
    2.5559   10.2020    0.0000 C   0  0  0  0  0  0  0  0  0  0  0  0
    0.4125    8.1395    0.0000 C   0  0  0  0  0  0  0  0  0  0  0  0
    1.1270    7.7270    0.0000 C   0  0  0  0  0  0  0  0  0  0  0  0
    1.8414    8.1395    0.0000 O   0  0  0  0  0  0  0  0  0  0  0  0
    1.1270    6.9020    0.0000 N   0  0  0  0  0  0  0  0  0  0  0  0
    1.8414    6.4895    0.0000 C   0  0  0  0  0  0  0  0  0  0  0  0
    2.5559    6.9020    0.0000 C   0  0  0  0  0  0  0  0  0  0  0  0
    3.2704    6.4895    0.0000 C   0  0  0  0  0  0  0  0  0  0  0  0
    3.2704    5.6645    0.0000 C   0  0  0  0  0  0  0  0  0  0  0  0
    2.5559    5.2520    0.0000 C   0  0  0  0  0  0  0  0  0  0  0  0
    2.5559    4.4270    0.0000 C   0  0  0  0  0  0  0  0  0  0  0  0
    1.8414    4.0145    0.0000 O   0  0  0  0  0  0  0  0  0  0  0  0
    3.2704    4.0145    0.0000 N   0  0  0  0  0  0  0  0  0  0  0  0
    3.2704    3.1895    0.0000 C   0  0  0  0  0  0  0  0  0  0  0  0
    3.6829    2.4750    0.0000 C   0  0  0  0  0  0  0  0  0  0  0  0
    2.8579    2.4750    0.0000 C   0  0  0  0  0  0  0  0  0  0  0  0
    1.8414    5.6645    0.0000 C   0  0  0  0  0  0  0  0  0  0  0  0
   -0.3020    7.7270    0.0000 C   0  0  0  0  0  0  0  0  0  0  0  0
   -1.0164    8.1395    0.0000 C   0  0  0  0  0  0  0  0  0  0  0  0
   -1.7309    7.7270    0.0000 F   0  0  0  0  0  0  0  0  0  0  0  0
   -2.4846    9.0414    0.0000 C   0  0  0  0  0  0  0  0  0  0  0  0
   -2.6561    8.2344    0.0000 O   0  0  0  0  0  0  0  0  0  0  0  0
   -3.0366    9.6545    0.0000 N   0  0  0  0  0  0  0  0  0  0  0  0
   -3.8571    9.5683    0.0000 C   0  0  0  0  0  0  0  0  0  0  0  0
  1  2  1  0  0  0  0
  2  3  1  0  0  0  0
  3  4  4  0  0  0  0
  4  5  4  0  0  0  0
  5  6  1  0  0  0  0
  6  7  4  0  0  0  0
  7  8  4  0  0  0  0
  8  9  1  0  0  0  0
  9 10  1  0  0  0  0
 10 11  1  0  0  0  0
 10 12  1  0  0  0  0
 12 13  4  0  0  0  0
 13 14  4  0  0  0  0
 14 15  4  0  0  0  0
 15 16  4  0  0  0  0
 16 17  4  0  0  0  0
 12 17  4  0  0  0  0
  8 18  4  0  0  0  0
 18 19  1  0  0  0  0
 19 20  2  0  0  0  0
 19 21  1  0  0  0  0
 21 22  1  0  0  0  0
 22 23  4  0  0  0  0
 23 24  4  0  0  0  0
 24 25  4  0  0  0  0
 25 26  4  0  0  0  0
 26 27  1  0  0  0  0
 27 28  2  0  0  0  0
 27 29  1  0  0  0  0
 29 30  1  0  0  0  0
 30 31  1  0  0  0  0
 31 32  1  0  0  0  0
 30 32  1  0  0  0  0
 26 33  4  0  0  0  0
 22 33  4  0  0  0  0
 18 34  4  0  0  0  0
 34 35  4  0  0  0  0
  6 35  4  0  0  0  0
 35 36  1  0  0  0  0
  5 37  4  0  0  0  0
 37 38  2  0  0  0  0
 37 39  4  0  0  0  0
  3 39  4  0  0  0  0
 39 40  1  0  0  0  0
M  END
> <IC50(uM)>
0.055

> <Outcome>
1.0

> <BindingDB ID>
972666; 1098820

> <BindingDB MonomerID>
470544

> <BindingDB Ligand Name>
N-[3-(cyclopropylcarbamoyl)phenyl]-4-(3-ethyl-4-methyl-5-oxo-4,5-dihydro-1H-1,2,4-triazol-1-yl)-5-fluoro-2-[(1S)-1-phenylethoxy]benzamide::US10815215, Example 204; N-[3-(cyclopropylcarbamoyl)phenyl]-4-(3-ethyl-4-methyl-5-oxo-4,5-dihydro-1H-1,2,4-triazol-1-yl)-5-fluoro-2-[(1S)-1-phenylethoxy]benzamide::US10815215, Example 204::US11130745, Example 204

> <Curation/DataSource>
US Patent

> <Article DOI>
?

> <PMID>
?

> <Patent Number>
US10815215; US11130745

> <Authors>
Gradl, SN; Nguyen, D; Eis, K; Gunther, J; Stellfeld, T; Janzer, A; Christian, S; Muller, T; Sheikh, SE; Zhou, HJ; Zhao, C; Sykes, DB; Ferrara, SJ; Liu, K; Krober, M; Merz, C; Niehues, M; Schafer, M; Zimmermann, K; Nising, CF; Gradl, SN; Nguyen, D; Eis, K; Gunther, J; Stellfeld, T; Janzer, A; Christian, S; Muller, T; Sheikh, SE; Sykes, DB; Ferrara, SJ; Krober, M; Merz, C; Niehues, M; Schafer, M; Zimmermann, K; Nising, CF

> <Link to Ligand in BindingDB>
http://www.bindingdb.org/bind/chemsearch/marvin/MolStructure.jsp?monomerid=470544

> <Link to Ligand-Target Pair in BindingDB>
http://www.bindingdb.org/jsp/dbsearch/PrimarySearch_ki.jsp?energyterm=kJ/mole&tag=r21&monomerid=470544&enzyme=Dihydroorotate+dehydrogenase&column=ki&startPg=0&Increment=50&submit=Search

> <PubChem CID>
134469991

> <PubChem SID>
441609720

$$$$

  Mrv2115 07222212352D          

 25 28  0  0  0  0            999 V2000
    2.5559   -1.8243    0.0000 O   0  0  0  0  0  0  0  0  0  0  0  0
    2.5559   -2.6493    0.0000 C   0  0  0  0  0  0  0  0  0  0  0  0
    1.8414   -3.0618    0.0000 O   0  0  0  0  0  0  0  0  0  0  0  0
    3.2704   -3.0618    0.0000 C   0  0  0  0  0  0  0  0  0  0  0  0
    3.2704   -3.8868    0.0000 C   0  0  0  0  0  0  0  0  0  0  0  0
    3.9849   -4.2993    0.0000 C   0  0  0  0  0  0  0  0  0  0  0  0
    3.9849   -5.1243    0.0000 C   0  0  0  0  0  0  0  0  0  0  0  0
    4.3974   -5.8388    0.0000 C   0  0  0  0  0  0  0  0  0  0  0  0
    3.5724   -5.8388    0.0000 C   0  0  0  0  0  0  0  0  0  0  0  0
    4.6993   -3.8868    0.0000 C   0  0  0  0  0  0  0  0  0  0  0  0
    4.6993   -3.0618    0.0000 C   0  0  0  0  0  0  0  0  0  0  0  0
    3.9849   -2.6493    0.0000 C   0  0  0  0  0  0  0  0  0  0  0  0
    3.9849   -1.8243    0.0000 N   0  0  0  0  0  0  0  0  0  0  0  0
    4.6993   -1.4118    0.0000 C   0  0  0  0  0  0  0  0  0  0  0  0
    4.6993   -0.5868    0.0000 C   0  0  0  0  0  0  0  0  0  0  0  0
    5.4138   -0.1743    0.0000 N   0  0  0  0  0  0  0  0  0  0  0  0
    6.1283   -0.5868    0.0000 C   0  0  0  0  0  0  0  0  0  0  0  0
    6.8427   -0.1743    0.0000 C   0  0  0  0  0  0  0  0  0  0  0  0
    6.8427    0.6507    0.0000 C   0  0  0  0  0  0  0  0  0  0  0  0
    7.5572    1.0632    0.0000 C   0  0  0  0  0  0  0  0  0  0  0  0
    8.2717    0.6507    0.0000 C   0  0  0  0  0  0  0  0  0  0  0  0
    8.2717   -0.1743    0.0000 C   0  0  0  0  0  0  0  0  0  0  0  0
    7.5572   -0.5868    0.0000 C   0  0  0  0  0  0  0  0  0  0  0  0
    6.1283   -1.4118    0.0000 N   0  0  0  0  0  0  0  0  0  0  0  0
    5.4138   -1.8243    0.0000 C   0  0  0  0  0  0  0  0  0  0  0  0
  1  2  2  0  0  0  0
  2  3  1  0  0  0  0
  2  4  1  0  0  0  0
  4  5  4  0  0  0  0
  5  6  4  0  0  0  0
  6  7  1  0  0  0  0
  7  8  1  0  0  0  0
  8  9  1  0  0  0  0
  7  9  1  0  0  0  0
  6 10  4  0  0  0  0
 10 11  4  0  0  0  0
 11 12  4  0  0  0  0
  4 12  4  0  0  0  0
 12 13  1  0  0  0  0
 13 14  1  0  0  0  0
 14 15  4  0  0  0  0
 15 16  4  0  0  0  0
 16 17  4  0  0  0  0
 17 18  1  0  0  0  0
 18 19  4  0  0  0  0
 19 20  4  0  0  0  0
 20 21  4  0  0  0  0
 21 22  4  0  0  0  0
 22 23  4  0  0  0  0
 18 23  4  0  0  0  0
 17 24  4  0  0  0  0
 24 25  4  0  0  0  0
 14 25  4  0  0  0  0
M  END
> <IC50(uM)>
0.105

> <Outcome>
1.0

> <BindingDB ID>
219976

> <BindingDB MonomerID>
102446

> <BindingDB Ligand Name>
US8536165, 1

> <Curation/DataSource>
US Patent

> <Article DOI>
?

> <PMID>
?

> <Patent Number>
US8536165

> <Authors>
Castro Palomino Laria, JC; Terricabras Belart, E; Erra Sola, M; Navarro Romero, E; Fonquerna Pou, S; Cardus Figueras, A; Lozoya Toribio, ME

> <Link to Ligand in BindingDB>
http://www.bindingdb.org/bind/chemsearch/marvin/MolStructure.jsp?monomerid=102446

> <Link to Ligand-Target Pair in BindingDB>
http://www.bindingdb.org/jsp/dbsearch/PrimarySearch_ki.jsp?energyterm=kJ/mole&tag=r21&monomerid=102446&enzyme=Dihydroorotate+dehydrogenase&column=ki&startPg=0&Increment=50&submit=Search

> <PubChem CID>
25186171

> <PubChem SID>
172097737

$$$$

  Mrv2115 07222212352D          

 32 36  0  0  0  0            999 V2000
    5.4957   -0.1271    0.0000 C   0  0  0  0  0  0  0  0  0  0  0  0
    5.4957    0.6979    0.0000 O   0  0  0  0  0  0  0  0  0  0  0  0
    4.7812    1.1104    0.0000 C   0  0  0  0  0  0  0  0  0  0  0  0
    4.7812    1.9354    0.0000 C   0  0  0  0  0  0  0  0  0  0  0  0
    4.0668    2.3479    0.0000 C   0  0  0  0  0  0  0  0  0  0  0  0
    3.3523    1.9354    0.0000 C   0  0  0  0  0  0  0  0  0  0  0  0
    3.3523    1.1104    0.0000 C   0  0  0  0  0  0  0  0  0  0  0  0
    4.0668    0.6979    0.0000 C   0  0  0  0  0  0  0  0  0  0  0  0
    2.6378    0.6979    0.0000 C   0  0  0  0  0  0  0  0  0  0  0  0
    2.6378   -0.1271    0.0000 O   0  0  0  0  0  0  0  0  0  0  0  0
    1.9233    1.1104    0.0000 C   0  0  0  0  0  0  0  0  0  0  0  0
    1.1387    0.8555    0.0000 N   0  0  0  0  0  0  0  0  0  0  0  0
    0.6538    1.5229    0.0000 N   0  0  0  0  0  0  0  0  0  0  0  0
    1.1387    2.1904    0.0000 N   0  0  0  0  0  0  0  0  0  0  0  0
    0.8838    2.9750    0.0000 C   0  0  0  0  0  0  0  0  0  0  0  0
    0.0768    3.1465    0.0000 C   0  0  0  0  0  0  0  0  0  0  0  0
   -0.1781    3.9312    0.0000 C   0  0  0  0  0  0  0  0  0  0  0  0
   -0.9851    4.1027    0.0000 F   0  0  0  0  0  0  0  0  0  0  0  0
    0.3739    4.5442    0.0000 C   0  0  0  0  0  0  0  0  0  0  0  0
    0.1190    5.3289    0.0000 C   0  0  0  0  0  0  0  0  0  0  0  0
   -0.6880    5.5004    0.0000 C   0  0  0  0  0  0  0  0  0  0  0  0
   -0.9429    6.2850    0.0000 C   0  0  0  0  0  0  0  0  0  0  0  0
   -0.3909    6.8981    0.0000 C   0  0  0  0  0  0  0  0  0  0  0  0
    0.4161    6.7266    0.0000 C   0  0  0  0  0  0  0  0  0  0  0  0
    0.6710    5.9420    0.0000 C   0  0  0  0  0  0  0  0  0  0  0  0
    1.4780    5.7704    0.0000 F   0  0  0  0  0  0  0  0  0  0  0  0
    1.1809    4.3727    0.0000 C   0  0  0  0  0  0  0  0  0  0  0  0
    1.7329    4.9858    0.0000 F   0  0  0  0  0  0  0  0  0  0  0  0
    1.4358    3.5881    0.0000 C   0  0  0  0  0  0  0  0  0  0  0  0
    1.9233    1.9354    0.0000 C   0  0  0  0  0  0  0  0  0  0  0  0
    2.6378    2.3479    0.0000 C   0  0  0  0  0  0  0  0  0  0  0  0
    2.6378    3.1729    0.0000 O   0  0  0  0  0  0  0  0  0  0  0  0
  1  2  1  0  0  0  0
  2  3  1  0  0  0  0
  3  4  4  0  0  0  0
  4  5  4  0  0  0  0
  5  6  4  0  0  0  0
  6  7  4  0  0  0  0
  7  8  4  0  0  0  0
  3  8  4  0  0  0  0
  7  9  1  0  0  0  0
  9 10  2  0  0  0  0
  9 11  1  0  0  0  0
 11 12  4  0  0  0  0
 12 13  4  0  0  0  0
 13 14  4  0  0  0  0
 14 15  1  0  0  0  0
 15 16  4  0  0  0  0
 16 17  4  0  0  0  0
 17 18  1  0  0  0  0
 17 19  4  0  0  0  0
 19 20  1  0  0  0  0
 20 21  4  0  0  0  0
 21 22  4  0  0  0  0
 22 23  4  0  0  0  0
 23 24  4  0  0  0  0
 24 25  4  0  0  0  0
 20 25  4  0  0  0  0
 25 26  1  0  0  0  0
 19 27  4  0  0  0  0
 27 28  1  0  0  0  0
 27 29  4  0  0  0  0
 15 29  4  0  0  0  0
 14 30  4  0  0  0  0
 11 30  4  0  0  0  0
 30 31  1  0  0  0  0
  6 31  1  0  0  0  0
 31 32  2  0  0  0  0
M  END
> <IC50(uM)>
1.0

> <Outcome>
1.0

> <BindingDB ID>
51338207

> <BindingDB MonomerID>
50541681

> <BindingDB Ligand Name>
CHEMBL4645402

> <Curation/DataSource>
ChEMBL

> <Article DOI>
10.1021/acs.jmedchem.0c00512

> <PMID>
32496056

> <Patent Number>
?

> <Authors>
Zuo, Z; Liu, X; Qian, X; Zeng, T; Sang, N; Liu, H; Zhou, Y; Tao, L; Zhou, X; Su, N; Yu, Y; Chen, Q; Luo, Y; Zhao, Y

> <Link to Ligand in BindingDB>
http://www.bindingdb.org/bind/chemsearch/marvin/MolStructure.jsp?monomerid=50541681

> <Link to Ligand-Target Pair in BindingDB>
http://www.bindingdb.org/jsp/dbsearch/PrimarySearch_ki.jsp?energyterm=kJ/mole&tag=r21&monomerid=50541681&enzyme=Dihydroorotate+dehydrogenase&column=ki&startPg=0&Increment=50&submit=Search

> <PubChem CID>
156019106

> <PubChem SID>
442143244

$$$$

  Mrv2115 07222212352D          

 29 31  0  0  0  0            999 V2000
   -2.7679   -2.3346    0.0000 C   0  0  0  0  0  0  0  0  0  0  0  0
   -2.0535   -2.7471    0.0000 C   0  0  0  0  0  0  0  0  0  0  0  0
   -1.3390   -2.3346    0.0000 C   0  0  0  0  0  0  0  0  0  0  0  0
   -0.6245   -2.7471    0.0000 C   0  0  0  0  0  0  0  0  0  0  0  0
   -0.6245   -3.5721    0.0000 C   0  0  0  0  0  0  0  0  0  0  0  0
    0.0900   -2.3346    0.0000 N   0  0  0  0  0  0  0  0  0  0  0  0
    0.8044   -2.7471    0.0000 N   0  0  0  0  0  0  0  0  0  0  0  0
    1.5189   -2.3346    0.0000 C   0  0  0  0  0  0  0  0  0  0  0  0
    2.2334   -2.7471    0.0000 C   0  0  0  0  0  0  0  0  0  0  0  0
    2.9478   -2.3346    0.0000 C   0  0  0  0  0  0  0  0  0  0  0  0
    3.6623   -2.7471    0.0000 C   0  0  0  0  0  0  0  0  0  0  0  0
    3.6623   -3.5721    0.0000 C   0  0  0  0  0  0  0  0  0  0  0  0
    2.9478   -3.9846    0.0000 C   0  0  0  0  0  0  0  0  0  0  0  0
    2.2334   -3.5721    0.0000 C   0  0  0  0  0  0  0  0  0  0  0  0
    1.5189   -3.9846    0.0000 C   0  0  0  0  0  0  0  0  0  0  0  0
    0.8044   -3.5721    0.0000 O   0  0  0  0  0  0  0  0  0  0  0  0
    1.5189   -4.8096    0.0000 O   0  0  0  0  0  0  0  0  0  0  0  0
    0.0900   -1.5096    0.0000 C   0  0  0  0  0  0  0  0  0  0  0  0
   -0.5775   -1.0246    0.0000 N   0  0  0  0  0  0  0  0  0  0  0  0
   -0.3225   -0.2400    0.0000 C   0  0  0  0  0  0  0  0  0  0  0  0
   -0.8075    0.4274    0.0000 C   0  0  0  0  0  0  0  0  0  0  0  0
   -1.6280    0.3412    0.0000 C   0  0  0  0  0  0  0  0  0  0  0  0
   -2.1129    1.0086    0.0000 C   0  0  0  0  0  0  0  0  0  0  0  0
   -1.7773    1.7623    0.0000 C   0  0  0  0  0  0  0  0  0  0  0  0
   -0.9568    1.8485    0.0000 C   0  0  0  0  0  0  0  0  0  0  0  0
   -0.4719    1.1811    0.0000 C   0  0  0  0  0  0  0  0  0  0  0  0
    0.3486    1.2673    0.0000 Cl  0  0  0  0  0  0  0  0  0  0  0  0
    0.5025   -0.2400    0.0000 C   0  0  0  0  0  0  0  0  0  0  0  0
    0.7574   -1.0246    0.0000 S   0  0  0  0  0  0  0  0  0  0  0  0
  1  2  1  0  0  0  0
  2  3  1  0  0  0  0
  3  4  1  0  0  0  0
  4  5  1  0  0  0  0
  4  6  1  0  0  0  0
  6  7  1  0  0  0  0
  7  8  2  0  0  0  0
  8  9  1  0  0  0  0
  9 10  4  0  0  0  0
 10 11  4  0  0  0  0
 11 12  4  0  0  0  0
 12 13  4  0  0  0  0
 13 14  4  0  0  0  0
  9 14  4  0  0  0  0
 14 15  1  0  0  0  0
 15 16  2  0  0  0  0
 15 17  1  0  0  0  0
  6 18  1  0  0  0  0
 18 19  4  0  0  0  0
 19 20  4  0  0  0  0
 20 21  1  0  0  0  0
 21 22  4  0  0  0  0
 22 23  4  0  0  0  0
 23 24  4  0  0  0  0
 24 25  4  0  0  0  0
 25 26  4  0  0  0  0
 21 26  4  0  0  0  0
 26 27  1  0  0  0  0
 20 28  4  0  0  0  0
 28 29  4  0  0  0  0
 18 29  4  0  0  0  0
M  END
> <IC50(uM)>
0.019100000000000002

> <Outcome>
1.0

> <BindingDB ID>
1001115

> <BindingDB MonomerID>
482801

> <BindingDB Ligand Name>
US10919869, No.  6

> <Curation/DataSource>
US Patent

> <Article DOI>
?

> <PMID>
?

> <Patent Number>
US10919869

> <Authors>
Li, H; Xu, Y; Wang, R; Zhao, Z; Song, W; Xu, L

> <Link to Ligand in BindingDB>
http://www.bindingdb.org/bind/chemsearch/marvin/MolStructure.jsp?monomerid=482801

> <Link to Ligand-Target Pair in BindingDB>
http://www.bindingdb.org/jsp/dbsearch/PrimarySearch_ki.jsp?energyterm=kJ/mole&tag=r21&monomerid=482801&enzyme=Dihydroorotate+dehydrogenase&column=ki&startPg=0&Increment=50&submit=Search

> <PubChem CID>
132157983

> <PubChem SID>
443551942

$$$$

  Mrv2115 07222212352D          

 20 22  0  0  0  0            999 V2000
    4.4871    1.3416    0.0000 C   0  0  0  0  0  0  0  0  0  0  0  0
    5.2016    1.7541    0.0000 C   0  0  0  0  0  0  0  0  0  0  0  0
    5.9161    1.3416    0.0000 C   0  0  0  0  0  0  0  0  0  0  0  0
    6.6306    1.7541    0.0000 N   0  0  0  0  0  0  0  0  0  0  0  0
    7.3450    1.3416    0.0000 C   0  0  0  0  0  0  0  0  0  0  0  0
    7.3450    0.5166    0.0000 O   0  0  0  0  0  0  0  0  0  0  0  0
    8.0595    1.7541    0.0000 C   0  0  0  0  0  0  0  0  0  0  0  0
    8.1457    2.5746    0.0000 C   0  0  0  0  0  0  0  0  0  0  0  0
    8.9527    2.7461    0.0000 C   0  0  0  0  0  0  0  0  0  0  0  0
    9.3652    2.0316    0.0000 C   0  0  0  0  0  0  0  0  0  0  0  0
   10.1857    1.9454    0.0000 N   0  0  0  0  0  0  0  0  0  0  0  0
   10.7377    2.5585    0.0000 C   0  0  0  0  0  0  0  0  0  0  0  0
   11.4914    2.2229    0.0000 N   0  0  0  0  0  0  0  0  0  0  0  0
   11.4052    1.4025    0.0000 C   0  0  0  0  0  0  0  0  0  0  0  0
   11.9572    0.7894    0.0000 C   0  0  0  0  0  0  0  0  0  0  0  0
   11.7023    0.0047    0.0000 C   0  0  0  0  0  0  0  0  0  0  0  0
   10.8953   -0.1668    0.0000 C   0  0  0  0  0  0  0  0  0  0  0  0
   10.3432    0.4463    0.0000 C   0  0  0  0  0  0  0  0  0  0  0  0
   10.5982    1.2309    0.0000 C   0  0  0  0  0  0  0  0  0  0  0  0
    8.8132    1.4185    0.0000 S   0  0  0  0  0  0  0  0  0  0  0  0
  1  2  1  0  0  0  0
  2  3  1  0  0  0  0
  3  4  1  0  0  0  0
  4  5  1  0  0  0  0
  5  6  2  0  0  0  0
  5  7  1  0  0  0  0
  7  8  4  0  0  0  0
  8  9  4  0  0  0  0
  9 10  4  0  0  0  0
 10 11  1  0  0  0  0
 11 12  4  0  0  0  0
 12 13  4  0  0  0  0
 13 14  4  0  0  0  0
 14 15  4  0  0  0  0
 15 16  4  0  0  0  0
 16 17  4  0  0  0  0
 17 18  4  0  0  0  0
 18 19  4  0  0  0  0
 14 19  4  0  0  0  0
 11 19  4  0  0  0  0
 10 20  4  0  0  0  0
  7 20  4  0  0  0  0
M  END
> <IC50(uM)>
30.0

> <Outcome>
0.0

> <BindingDB ID>
248388; 50924655

> <BindingDB MonomerID>
50379137

> <BindingDB Ligand Name>
CHEMBL2012822::US8703811, 11

> <Curation/DataSource>
US Patent; ChEMBL

> <Article DOI>
?; 10.1021/ml200143c

> <PMID>
?; 24900364

> <Patent Number>
US8703811; ?

> <Authors>
Bastos, C; Booker, ML; Celatka, CA; Clardy, JC; Cortese, J; Patel, VP; Skerlj, R; Wiegand, RC; Wirth, DF; Skerlj, RT; Bastos, CM; Booker, ML; Kramer, ML; Barker, RH; Celatka, CA; Munoz, B; Sidhu, AB; Cortese, JF; Wittlin, S; Papastogiannidis, P; Angulo-Barturen, I; Jimenez-Diaz, MB; Sybertz, E

> <Link to Ligand in BindingDB>
http://www.bindingdb.org/bind/chemsearch/marvin/MolStructure.jsp?monomerid=50379137

> <Link to Ligand-Target Pair in BindingDB>
http://www.bindingdb.org/jsp/dbsearch/PrimarySearch_ki.jsp?energyterm=kJ/mole&tag=r21&monomerid=50379137&enzyme=Dihydroorotate+dehydrogenase&column=ki&startPg=0&Increment=50&submit=Search

> <PubChem CID>
44480861

> <PubChem SID>
160858220

$$$$

  Mrv2115 07222212352D          

 24 27  0  0  0  0            999 V2000
    1.8500    2.0625    0.0000 O   0  0  0  0  0  0  0  0  0  0  0  0
    2.5645    2.4750    0.0000 C   0  0  0  0  0  0  0  0  0  0  0  0
    3.2789    2.0625    0.0000 N   0  0  0  0  0  0  0  0  0  0  0  0
    3.2789    1.2375    0.0000 C   0  0  0  0  0  0  0  0  0  0  0  0
    3.9934    0.8250    0.0000 C   0  0  0  0  0  0  0  0  0  0  0  0
    3.9934    0.0000    0.0000 C   0  0  0  0  0  0  0  0  0  0  0  0
    3.2789   -0.4125    0.0000 C   0  0  0  0  0  0  0  0  0  0  0  0
    2.5645    0.0000    0.0000 C   0  0  0  0  0  0  0  0  0  0  0  0
    2.5645    0.8250    0.0000 C   0  0  0  0  0  0  0  0  0  0  0  0
    1.7798    1.0799    0.0000 C   0  0  0  0  0  0  0  0  0  0  0  0
    1.2949    0.4125    0.0000 N   0  0  0  0  0  0  0  0  0  0  0  0
    1.7798   -0.2549    0.0000 N   0  0  0  0  0  0  0  0  0  0  0  0
    1.5249   -1.0396    0.0000 C   0  0  0  0  0  0  0  0  0  0  0  0
    2.0769   -1.6527    0.0000 C   0  0  0  0  0  0  0  0  0  0  0  0
    1.8220   -2.4373    0.0000 C   0  0  0  0  0  0  0  0  0  0  0  0
    1.0150   -2.6088    0.0000 C   0  0  0  0  0  0  0  0  0  0  0  0
    0.4630   -1.9957    0.0000 C   0  0  0  0  0  0  0  0  0  0  0  0
    0.7179   -1.2111    0.0000 C   0  0  0  0  0  0  0  0  0  0  0  0
    2.5645    3.3000    0.0000 C   0  0  0  0  0  0  0  0  0  0  0  0
    1.8500    3.7125    0.0000 C   0  0  0  0  0  0  0  0  0  0  0  0
    1.8500    4.5375    0.0000 C   0  0  0  0  0  0  0  0  0  0  0  0
    2.5645    4.9500    0.0000 C   0  0  0  0  0  0  0  0  0  0  0  0
    3.2789    4.5375    0.0000 C   0  0  0  0  0  0  0  0  0  0  0  0
    3.2789    3.7125    0.0000 N   0  0  0  0  0  0  0  0  0  0  0  0
  1  2  2  0  0  0  0
  2  3  1  0  0  0  0
  3  4  1  0  0  0  0
  4  5  1  0  0  0  0
  5  6  1  0  0  0  0
  6  7  1  0  0  0  0
  7  8  1  0  0  0  0
  8  9  4  0  0  0  0
  4  9  1  0  0  0  0
  9 10  4  0  0  0  0
 10 11  4  0  0  0  0
 11 12  4  0  0  0  0
  8 12  4  0  0  0  0
 12 13  1  0  0  0  0
 13 14  4  0  0  0  0
 14 15  4  0  0  0  0
 15 16  4  0  0  0  0
 16 17  4  0  0  0  0
 17 18  4  0  0  0  0
 13 18  4  0  0  0  0
  2 19  1  0  0  0  0
 19 20  4  0  0  0  0
 20 21  4  0  0  0  0
 21 22  4  0  0  0  0
 22 23  4  0  0  0  0
 23 24  4  0  0  0  0
 19 24  4  0  0  0  0
M  END
> <IC50(uM)>
2390.0

> <Outcome>
0.0

> <BindingDB ID>
993091

> <BindingDB MonomerID>
477593

> <BindingDB Ligand Name>
N-(1-phenyl-4,5,6,7-tetrahydro-1H-indazol-4-yl)pyridine-2-carboxamide::US10889564, Example 23

> <Curation/DataSource>
US Patent

> <Article DOI>
?

> <PMID>
?

> <Patent Number>
US10889564

> <Authors>
Lain, S; Drummond, C; Leeuwen, IV; Haraldsson, M; Johansson, L; Sandberg, L; Yngve, U

> <Link to Ligand in BindingDB>
http://www.bindingdb.org/bind/chemsearch/marvin/MolStructure.jsp?monomerid=477593

> <Link to Ligand-Target Pair in BindingDB>
http://www.bindingdb.org/jsp/dbsearch/PrimarySearch_ki.jsp?energyterm=kJ/mole&tag=r21&monomerid=477593&enzyme=Dihydroorotate+dehydrogenase&column=ki&startPg=0&Increment=50&submit=Search

> <PubChem CID>
129104722

> <PubChem SID>
442137210

$$$$

  Mrv2115 07222212352D          

 29 33  0  0  0  0            999 V2000
    0.1536    1.3672    0.0000 O   0  0  0  0  0  0  0  0  0  0  0  0
   -0.3984    0.7541    0.0000 C   0  0  0  0  0  0  0  0  0  0  0  0
   -1.2054    0.9256    0.0000 N   0  0  0  0  0  0  0  0  0  0  0  0
   -1.4604    1.7103    0.0000 C   0  0  0  0  0  0  0  0  0  0  0  0
   -2.2673    1.8818    0.0000 C   0  0  0  0  0  0  0  0  0  0  0  0
   -2.5223    2.6664    0.0000 C   0  0  0  0  0  0  0  0  0  0  0  0
   -1.9702    3.2795    0.0000 C   0  0  0  0  0  0  0  0  0  0  0  0
   -1.1633    3.1080    0.0000 C   0  0  0  0  0  0  0  0  0  0  0  0
   -0.9083    2.3234    0.0000 C   0  0  0  0  0  0  0  0  0  0  0  0
   -0.0833    2.3234    0.0000 C   0  0  0  0  0  0  0  0  0  0  0  0
    0.1716    3.1080    0.0000 N   0  0  0  0  0  0  0  0  0  0  0  0
   -0.4958    3.5929    0.0000 N   0  0  0  0  0  0  0  0  0  0  0  0
   -0.4958    4.4179    0.0000 C   0  0  0  0  0  0  0  0  0  0  0  0
   -1.2103    4.8304    0.0000 C   0  0  0  0  0  0  0  0  0  0  0  0
   -1.2103    5.6554    0.0000 C   0  0  0  0  0  0  0  0  0  0  0  0
   -0.4958    6.0679    0.0000 C   0  0  0  0  0  0  0  0  0  0  0  0
   -0.4958    6.8929    0.0000 F   0  0  0  0  0  0  0  0  0  0  0  0
    0.2186    5.6554    0.0000 C   0  0  0  0  0  0  0  0  0  0  0  0
    0.2186    4.8304    0.0000 C   0  0  0  0  0  0  0  0  0  0  0  0
    0.9331    4.4179    0.0000 F   0  0  0  0  0  0  0  0  0  0  0  0
   -0.1435   -0.0305    0.0000 C   0  0  0  0  0  0  0  0  0  0  0  0
   -0.6284   -0.6979    0.0000 O   0  0  0  0  0  0  0  0  0  0  0  0
   -0.1435   -1.3654    0.0000 N   0  0  0  0  0  0  0  0  0  0  0  0
    0.6411   -1.1104    0.0000 C   0  0  0  0  0  0  0  0  0  0  0  0
    0.6411   -0.2854    0.0000 C   0  0  0  0  0  0  0  0  0  0  0  0
    1.3556    0.1271    0.0000 C   0  0  0  0  0  0  0  0  0  0  0  0
    2.0701   -0.2854    0.0000 C   0  0  0  0  0  0  0  0  0  0  0  0
    2.0701   -1.1104    0.0000 C   0  0  0  0  0  0  0  0  0  0  0  0
    1.3556   -1.5229    0.0000 C   0  0  0  0  0  0  0  0  0  0  0  0
  1  2  2  0  0  0  0
  2  3  1  0  0  0  0
  3  4  1  0  0  0  0
  4  5  1  0  0  0  0
  5  6  1  0  0  0  0
  6  7  1  0  0  0  0
  7  8  1  0  0  0  0
  8  9  4  0  0  0  0
  4  9  1  0  0  0  0
  9 10  4  0  0  0  0
 10 11  4  0  0  0  0
 11 12  4  0  0  0  0
  8 12  4  0  0  0  0
 12 13  1  0  0  0  0
 13 14  4  0  0  0  0
 14 15  4  0  0  0  0
 15 16  4  0  0  0  0
 16 17  1  0  0  0  0
 16 18  4  0  0  0  0
 18 19  4  0  0  0  0
 13 19  4  0  0  0  0
 19 20  1  0  0  0  0
  2 21  1  0  0  0  0
 21 22  4  0  0  0  0
 22 23  4  0  0  0  0
 23 24  4  0  0  0  0
 24 25  4  0  0  0  0
 21 25  4  0  0  0  0
 25 26  1  0  0  0  0
 26 27  1  0  0  0  0
 27 28  1  0  0  0  0
 28 29  1  0  0  0  0
 24 29  1  0  0  0  0
M  END
> <IC50(uM)>
0.29

> <Outcome>
1.0

> <BindingDB ID>
993074

> <BindingDB MonomerID>
477576

> <BindingDB Ligand Name>
N-(1-(2,4-difluorophenyl)-4,5,6,7-tetrahydro-1H-indazol-4-yl)-4,5,6,7-tetrahydrobenzo[c]isoxazole-3-carboxamide::US10889564, Example 5

> <Curation/DataSource>
US Patent

> <Article DOI>
?

> <PMID>
?

> <Patent Number>
US10889564

> <Authors>
Lain, S; Drummond, C; Leeuwen, IV; Haraldsson, M; Johansson, L; Sandberg, L; Yngve, U

> <Link to Ligand in BindingDB>
http://www.bindingdb.org/bind/chemsearch/marvin/MolStructure.jsp?monomerid=477576

> <Link to Ligand-Target Pair in BindingDB>
http://www.bindingdb.org/jsp/dbsearch/PrimarySearch_ki.jsp?energyterm=kJ/mole&tag=r21&monomerid=477576&enzyme=Dihydroorotate+dehydrogenase&column=ki&startPg=0&Increment=50&submit=Search

> <PubChem CID>
129104751

> <PubChem SID>
442137193

$$$$

  Mrv2115 07222212352D          

 27 29  0  0  0  0            999 V2000
   -2.1434   11.7161    0.0000 C   0  0  0  0  0  0  0  0  0  0  0  0
   -2.1434   10.8911    0.0000 O   0  0  0  0  0  0  0  0  0  0  0  0
   -1.4289   10.4786    0.0000 C   0  0  0  0  0  0  0  0  0  0  0  0
   -0.7145   10.8911    0.0000 C   0  0  0  0  0  0  0  0  0  0  0  0
   -0.0000   10.4786    0.0000 C   0  0  0  0  0  0  0  0  0  0  0  0
   -0.0000    9.6536    0.0000 C   0  0  0  0  0  0  0  0  0  0  0  0
   -0.7145    9.2411    0.0000 C   0  0  0  0  0  0  0  0  0  0  0  0
   -0.7145    8.4161    0.0000 C   0  0  0  0  0  0  0  0  0  0  0  0
   -0.0000    8.0036    0.0000 C   0  0  0  0  0  0  0  0  0  0  0  0
   -0.0000    7.1786    0.0000 C   0  0  0  0  0  0  0  0  0  0  0  0
    0.7145    6.7661    0.0000 F   0  0  0  0  0  0  0  0  0  0  0  0
   -0.7145    6.7661    0.0000 C   0  0  0  0  0  0  0  0  0  0  0  0
   -0.7145    5.9411    0.0000 N   0  0  0  0  0  0  0  0  0  0  0  0
   -0.0000    5.5286    0.0000 C   0  0  0  0  0  0  0  0  0  0  0  0
    0.7145    5.9411    0.0000 O   0  0  0  0  0  0  0  0  0  0  0  0
   -0.0000    4.7036    0.0000 C   0  0  0  0  0  0  0  0  0  0  0  0
    0.6674    4.2187    0.0000 C   0  0  0  0  0  0  0  0  0  0  0  0
    1.4521    4.4736    0.0000 C   0  0  0  0  0  0  0  0  0  0  0  0
    1.6236    5.2806    0.0000 O   0  0  0  0  0  0  0  0  0  0  0  0
    2.0652    3.9216    0.0000 O   0  0  0  0  0  0  0  0  0  0  0  0
    0.4125    3.4340    0.0000 C   0  0  0  0  0  0  0  0  0  0  0  0
   -0.4125    3.4340    0.0000 C   0  0  0  0  0  0  0  0  0  0  0  0
   -0.6674    4.2187    0.0000 C   0  0  0  0  0  0  0  0  0  0  0  0
   -1.4289    7.1786    0.0000 C   0  0  0  0  0  0  0  0  0  0  0  0
   -2.1434    6.7661    0.0000 F   0  0  0  0  0  0  0  0  0  0  0  0
   -1.4289    8.0036    0.0000 C   0  0  0  0  0  0  0  0  0  0  0  0
   -1.4289    9.6536    0.0000 C   0  0  0  0  0  0  0  0  0  0  0  0
  1  2  1  0  0  0  0
  2  3  1  0  0  0  0
  3  4  4  0  0  0  0
  4  5  4  0  0  0  0
  5  6  4  0  0  0  0
  6  7  4  0  0  0  0
  7  8  1  0  0  0  0
  8  9  4  0  0  0  0
  9 10  4  0  0  0  0
 10 11  1  0  0  0  0
 10 12  4  0  0  0  0
 12 13  1  0  0  0  0
 13 14  1  0  0  0  0
 14 15  2  0  0  0  0
 14 16  1  0  0  0  0
 16 17  2  0  0  0  0
 17 18  1  0  0  0  0
 18 19  2  0  0  0  0
 18 20  1  0  0  0  0
 17 21  1  0  0  0  0
 21 22  1  0  0  0  0
 22 23  1  0  0  0  0
 16 23  1  0  0  0  0
 12 24  4  0  0  0  0
 24 25  1  0  0  0  0
 24 26  4  0  0  0  0
  8 26  4  0  0  0  0
  7 27  4  0  0  0  0
  3 27  4  0  0  0  0
M  END
> <IC50(uM)>
0.011

> <Outcome>
1.0

> <BindingDB ID>
50319885

> <BindingDB MonomerID>
50173152

> <BindingDB Ligand Name>
2-(3,5-Difluoro-3'-methoxy-biphenyl-4-ylcarbamoyl)-cyclopent-1-enecarboxylic acid::CHEMBL195622

> <Curation/DataSource>
ChEMBL

> <Article DOI>
10.1016/j.bmcl.2005.07.053

> <PMID>
16143532

> <Patent Number>
?

> <Authors>
Leban, J; Kralik, M; Mies, J; Gassen, M; Tentschert, K; Baumgartner, R

> <Link to Ligand in BindingDB>
http://www.bindingdb.org/bind/chemsearch/marvin/MolStructure.jsp?monomerid=50173152

> <Link to Ligand-Target Pair in BindingDB>
http://www.bindingdb.org/jsp/dbsearch/PrimarySearch_ki.jsp?energyterm=kJ/mole&tag=r21&monomerid=50173152&enzyme=Dihydroorotate+dehydrogenase&column=ki&startPg=0&Increment=50&submit=Search

> <PubChem CID>
44403236

> <PubChem SID>
104059123

$$$$

  Mrv2115 07222212352D          

 26 28  0  0  0  0            999 V2000
    1.4289   -0.0000    0.0000 C   0  0  0  0  0  0  0  0  0  0  0  0
    0.7145   -0.4125    0.0000 N   0  0  0  0  0  0  0  0  0  0  0  0
    0.0000    0.0000    0.0000 N   0  0  0  0  0  0  0  0  0  0  0  0
   -0.7145   -0.4125    0.0000 C   0  0  0  0  0  0  0  0  0  0  0  0
   -1.4289    0.0000    0.0000 C   0  0  0  0  0  0  0  0  0  0  0  0
   -2.1434   -0.4125    0.0000 C   0  0  0  0  0  0  0  0  0  0  0  0
   -2.8579    0.0000    0.0000 C   0  0  0  0  0  0  0  0  0  0  0  0
   -2.8579    0.8250    0.0000 C   0  0  0  0  0  0  0  0  0  0  0  0
   -2.1434    1.2375    0.0000 C   0  0  0  0  0  0  0  0  0  0  0  0
   -1.4289    0.8250    0.0000 C   0  0  0  0  0  0  0  0  0  0  0  0
   -0.7145    1.2375    0.0000 C   0  0  0  0  0  0  0  0  0  0  0  0
    0.0000    0.8250    0.0000 O   0  0  0  0  0  0  0  0  0  0  0  0
   -0.7145    2.0625    0.0000 O   0  0  0  0  0  0  0  0  0  0  0  0
    0.7145   -1.2375    0.0000 C   0  0  0  0  0  0  0  0  0  0  0  0
    1.3819   -1.7224    0.0000 N   0  0  0  0  0  0  0  0  0  0  0  0
    1.1270   -2.5070    0.0000 C   0  0  0  0  0  0  0  0  0  0  0  0
    1.6119   -3.1745    0.0000 C   0  0  0  0  0  0  0  0  0  0  0  0
    2.4324   -3.0882    0.0000 C   0  0  0  0  0  0  0  0  0  0  0  0
    2.9173   -3.7557    0.0000 C   0  0  0  0  0  0  0  0  0  0  0  0
    3.7378   -3.6695    0.0000 Cl  0  0  0  0  0  0  0  0  0  0  0  0
    2.5817   -4.5094    0.0000 C   0  0  0  0  0  0  0  0  0  0  0  0
    1.7613   -4.5956    0.0000 C   0  0  0  0  0  0  0  0  0  0  0  0
    1.2763   -3.9282    0.0000 C   0  0  0  0  0  0  0  0  0  0  0  0
    0.4559   -4.0144    0.0000 Cl  0  0  0  0  0  0  0  0  0  0  0  0
    0.3020   -2.5070    0.0000 C   0  0  0  0  0  0  0  0  0  0  0  0
    0.0470   -1.7224    0.0000 S   0  0  0  0  0  0  0  0  0  0  0  0
  1  2  1  0  0  0  0
  2  3  1  0  0  0  0
  3  4  2  0  0  0  0
  4  5  1  0  0  0  0
  5  6  4  0  0  0  0
  6  7  4  0  0  0  0
  7  8  4  0  0  0  0
  8  9  4  0  0  0  0
  9 10  4  0  0  0  0
  5 10  4  0  0  0  0
 10 11  1  0  0  0  0
 11 12  2  0  0  0  0
 11 13  1  0  0  0  0
  2 14  1  0  0  0  0
 14 15  4  0  0  0  0
 15 16  4  0  0  0  0
 16 17  1  0  0  0  0
 17 18  4  0  0  0  0
 18 19  4  0  0  0  0
 19 20  1  0  0  0  0
 19 21  4  0  0  0  0
 21 22  4  0  0  0  0
 22 23  4  0  0  0  0
 17 23  4  0  0  0  0
 23 24  1  0  0  0  0
 16 25  4  0  0  0  0
 25 26  4  0  0  0  0
 14 26  4  0  0  0  0
M  END
> <IC50(uM)>
0.0282

> <Outcome>
1.0

> <BindingDB ID>
1001126

> <BindingDB MonomerID>
482812

> <BindingDB Ligand Name>
US10919869, No.  19

> <Curation/DataSource>
US Patent

> <Article DOI>
?

> <PMID>
?

> <Patent Number>
US10919869

> <Authors>
Li, H; Xu, Y; Wang, R; Zhao, Z; Song, W; Xu, L

> <Link to Ligand in BindingDB>
http://www.bindingdb.org/bind/chemsearch/marvin/MolStructure.jsp?monomerid=482812

> <Link to Ligand-Target Pair in BindingDB>
http://www.bindingdb.org/jsp/dbsearch/PrimarySearch_ki.jsp?energyterm=kJ/mole&tag=r21&monomerid=482812&enzyme=Dihydroorotate+dehydrogenase&column=ki&startPg=0&Increment=50&submit=Search

> <PubChem CID>
132157886

> <PubChem SID>
443551953

$$$$

  Mrv2115 07222212352D          

 25 27  0  0  0  0            999 V2000
    1.4289   -0.0000    0.0000 C   0  0  0  0  0  0  0  0  0  0  0  0
    0.7145   -0.4125    0.0000 N   0  0  0  0  0  0  0  0  0  0  0  0
    0.0000    0.0000    0.0000 N   0  0  0  0  0  0  0  0  0  0  0  0
   -0.7145   -0.4125    0.0000 C   0  0  0  0  0  0  0  0  0  0  0  0
   -1.4289    0.0000    0.0000 C   0  0  0  0  0  0  0  0  0  0  0  0
   -2.1434   -0.4125    0.0000 C   0  0  0  0  0  0  0  0  0  0  0  0
   -2.8579    0.0000    0.0000 C   0  0  0  0  0  0  0  0  0  0  0  0
   -2.8579    0.8250    0.0000 C   0  0  0  0  0  0  0  0  0  0  0  0
   -2.1434    1.2375    0.0000 C   0  0  0  0  0  0  0  0  0  0  0  0
   -1.4289    0.8250    0.0000 C   0  0  0  0  0  0  0  0  0  0  0  0
   -0.7145    1.2375    0.0000 C   0  0  0  0  0  0  0  0  0  0  0  0
    0.0000    0.8250    0.0000 O   0  0  0  0  0  0  0  0  0  0  0  0
   -0.7145    2.0625    0.0000 O   0  0  0  0  0  0  0  0  0  0  0  0
    0.7145   -1.2375    0.0000 C   0  0  0  0  0  0  0  0  0  0  0  0
    1.3819   -1.7224    0.0000 N   0  0  0  0  0  0  0  0  0  0  0  0
    1.1270   -2.5070    0.0000 C   0  0  0  0  0  0  0  0  0  0  0  0
    1.6119   -3.1745    0.0000 C   0  0  0  0  0  0  0  0  0  0  0  0
    2.4324   -3.0882    0.0000 C   0  0  0  0  0  0  0  0  0  0  0  0
    2.9173   -3.7557    0.0000 C   0  0  0  0  0  0  0  0  0  0  0  0
    2.5817   -4.5094    0.0000 C   0  0  0  0  0  0  0  0  0  0  0  0
    1.7613   -4.5956    0.0000 C   0  0  0  0  0  0  0  0  0  0  0  0
    1.4257   -5.3493    0.0000 Cl  0  0  0  0  0  0  0  0  0  0  0  0
    1.2763   -3.9282    0.0000 C   0  0  0  0  0  0  0  0  0  0  0  0
    0.3020   -2.5070    0.0000 C   0  0  0  0  0  0  0  0  0  0  0  0
    0.0470   -1.7224    0.0000 S   0  0  0  0  0  0  0  0  0  0  0  0
  1  2  1  0  0  0  0
  2  3  1  0  0  0  0
  3  4  2  0  0  0  0
  4  5  1  0  0  0  0
  5  6  4  0  0  0  0
  6  7  4  0  0  0  0
  7  8  4  0  0  0  0
  8  9  4  0  0  0  0
  9 10  4  0  0  0  0
  5 10  4  0  0  0  0
 10 11  1  0  0  0  0
 11 12  2  0  0  0  0
 11 13  1  0  0  0  0
  2 14  1  0  0  0  0
 14 15  4  0  0  0  0
 15 16  4  0  0  0  0
 16 17  1  0  0  0  0
 17 18  4  0  0  0  0
 18 19  4  0  0  0  0
 19 20  4  0  0  0  0
 20 21  4  0  0  0  0
 21 22  1  0  0  0  0
 21 23  4  0  0  0  0
 17 23  4  0  0  0  0
 16 24  4  0  0  0  0
 24 25  4  0  0  0  0
 14 25  4  0  0  0  0
M  END
> <IC50(uM)>
0.0106

> <Outcome>
1.0

> <BindingDB ID>
1001128

> <BindingDB MonomerID>
482814

> <BindingDB Ligand Name>
US10919869, No.  21

> <Curation/DataSource>
US Patent

> <Article DOI>
?

> <PMID>
?

> <Patent Number>
US10919869

> <Authors>
Li, H; Xu, Y; Wang, R; Zhao, Z; Song, W; Xu, L

> <Link to Ligand in BindingDB>
http://www.bindingdb.org/bind/chemsearch/marvin/MolStructure.jsp?monomerid=482814

> <Link to Ligand-Target Pair in BindingDB>
http://www.bindingdb.org/jsp/dbsearch/PrimarySearch_ki.jsp?energyterm=kJ/mole&tag=r21&monomerid=482814&enzyme=Dihydroorotate+dehydrogenase&column=ki&startPg=0&Increment=50&submit=Search

> <PubChem CID>
132157947

> <PubChem SID>
443551955

$$$$

  Mrv2115 07222212352D          

 32 35  0  0  0  0            999 V2000
    1.8414   -3.0618    0.0000 O   0  0  0  0  0  0  0  0  0  0  0  0
    2.5559   -2.6493    0.0000 C   0  0  0  0  0  0  0  0  0  0  0  0
    2.5559   -1.8243    0.0000 O   0  0  0  0  0  0  0  0  0  0  0  0
    3.2704   -3.0618    0.0000 C   0  0  0  0  0  0  0  0  0  0  0  0
    3.2704   -3.8868    0.0000 C   0  0  0  0  0  0  0  0  0  0  0  0
    3.9849   -4.2993    0.0000 C   0  0  0  0  0  0  0  0  0  0  0  0
    3.9849   -5.1243    0.0000 C   0  0  0  0  0  0  0  0  0  0  0  0
    4.3974   -5.8388    0.0000 C   0  0  0  0  0  0  0  0  0  0  0  0
    3.5724   -5.8388    0.0000 C   0  0  0  0  0  0  0  0  0  0  0  0
    4.6993   -3.8868    0.0000 C   0  0  0  0  0  0  0  0  0  0  0  0
    4.6993   -3.0618    0.0000 N   0  0  0  0  0  0  0  0  0  0  0  0
    3.9849   -2.6493    0.0000 C   0  0  0  0  0  0  0  0  0  0  0  0
    3.9849   -1.8243    0.0000 N   0  0  0  0  0  0  0  0  0  0  0  0
    4.6993   -1.4118    0.0000 C   0  0  0  0  0  0  0  0  0  0  0  0
    4.6993   -0.5868    0.0000 C   0  0  0  0  0  0  0  0  0  0  0  0
    3.9849   -0.1743    0.0000 F   0  0  0  0  0  0  0  0  0  0  0  0
    5.4138   -0.1743    0.0000 C   0  0  0  0  0  0  0  0  0  0  0  0
    6.1283   -0.5868    0.0000 C   0  0  0  0  0  0  0  0  0  0  0  0
    6.8427   -0.1743    0.0000 C   0  0  0  0  0  0  0  0  0  0  0  0
    6.8427    0.6507    0.0000 C   0  0  0  0  0  0  0  0  0  0  0  0
    7.5572    1.0632    0.0000 C   0  0  0  0  0  0  0  0  0  0  0  0
    8.2717    0.6507    0.0000 C   0  0  0  0  0  0  0  0  0  0  0  0
    8.2717   -0.1743    0.0000 C   0  0  0  0  0  0  0  0  0  0  0  0
    8.9862   -0.5868    0.0000 O   0  0  0  0  0  0  0  0  0  0  0  0
    9.7006   -0.1743    0.0000 C   0  0  0  0  0  0  0  0  0  0  0  0
   10.4151    0.2382    0.0000 F   0  0  0  0  0  0  0  0  0  0  0  0
   10.1131   -0.8888    0.0000 F   0  0  0  0  0  0  0  0  0  0  0  0
    9.2881    0.5401    0.0000 F   0  0  0  0  0  0  0  0  0  0  0  0
    7.5572   -0.5868    0.0000 C   0  0  0  0  0  0  0  0  0  0  0  0
    6.1283   -1.4118    0.0000 C   0  0  0  0  0  0  0  0  0  0  0  0
    5.4138   -1.8243    0.0000 C   0  0  0  0  0  0  0  0  0  0  0  0
    5.4138   -2.6493    0.0000 F   0  0  0  0  0  0  0  0  0  0  0  0
  1  2  2  0  0  0  0
  2  3  1  0  0  0  0
  2  4  1  0  0  0  0
  4  5  4  0  0  0  0
  5  6  4  0  0  0  0
  6  7  1  0  0  0  0
  7  8  1  0  0  0  0
  8  9  1  0  0  0  0
  7  9  1  0  0  0  0
  6 10  4  0  0  0  0
 10 11  4  0  0  0  0
 11 12  4  0  0  0  0
  4 12  4  0  0  0  0
 12 13  1  0  0  0  0
 13 14  1  0  0  0  0
 14 15  4  0  0  0  0
 15 16  1  0  0  0  0
 15 17  4  0  0  0  0
 17 18  4  0  0  0  0
 18 19  1  0  0  0  0
 19 20  4  0  0  0  0
 20 21  4  0  0  0  0
 21 22  4  0  0  0  0
 22 23  4  0  0  0  0
 23 24  1  0  0  0  0
 24 25  1  0  0  0  0
 25 26  1  0  0  0  0
 25 27  1  0  0  0  0
 25 28  1  0  0  0  0
 23 29  4  0  0  0  0
 19 29  4  0  0  0  0
 18 30  4  0  0  0  0
 30 31  4  0  0  0  0
 14 31  4  0  0  0  0
 31 32  1  0  0  0  0
M  END
> <IC50(uM)>
0.004

> <Outcome>
1.0

> <BindingDB ID>
246919; 51186848

> <BindingDB MonomerID>
119826

> <BindingDB Ligand Name>
US8691852, 52

> <Curation/DataSource>
US Patent; ChEMBL

> <Article DOI>
?; 10.1007/s00044-011-9837-4

> <PMID>
?

> <Patent Number>
US8691852; ?

> <Authors>
Castro Palomino Laria, JC; Erra Sola, M; Lozoya Toribio, ME; Navarro Romero, E; n/a

> <Link to Ligand in BindingDB>
http://www.bindingdb.org/bind/chemsearch/marvin/MolStructure.jsp?monomerid=119826

> <Link to Ligand-Target Pair in BindingDB>
http://www.bindingdb.org/jsp/dbsearch/PrimarySearch_ki.jsp?energyterm=kJ/mole&tag=r21&monomerid=119826&enzyme=Dihydroorotate+dehydrogenase&column=ki&startPg=0&Increment=50&submit=Search

> <PubChem CID>
24989025

> <PubChem SID>
220230620

$$$$

  Mrv2115 07222212352D          

 37 40  0  0  0  0            999 V2000
   -1.9708    1.4423    0.0000 C   0  0  0  0  0  0  0  0  0  0  0  0
   -2.7958    1.4423    0.0000 C   0  0  0  0  0  0  0  0  0  0  0  0
   -3.2083    0.7279    0.0000 O   0  0  0  0  0  0  0  0  0  0  0  0
   -2.7958    0.0134    0.0000 C   0  0  0  0  0  0  0  0  0  0  0  0
   -1.9708    0.0134    0.0000 C   0  0  0  0  0  0  0  0  0  0  0  0
   -1.5583   -0.7011    0.0000 C   0  0  0  0  0  0  0  0  0  0  0  0
   -0.7333   -0.7011    0.0000 N   0  0  0  0  0  0  0  0  0  0  0  0
   -0.2483   -1.3685    0.0000 N   0  0  0  0  0  0  0  0  0  0  0  0
    0.5363   -1.1136    0.0000 C   0  0  0  0  0  0  0  0  0  0  0  0
    0.5363   -0.2886    0.0000 N   0  0  0  0  0  0  0  0  0  0  0  0
   -0.2483   -0.0336    0.0000 C   0  0  0  0  0  0  0  0  0  0  0  0
   -0.5033    0.7510    0.0000 O   0  0  0  0  0  0  0  0  0  0  0  0
    1.1813    0.2258    0.0000 C   0  0  0  0  0  0  0  0  0  0  0  0
    1.9856    0.0422    0.0000 C   0  0  0  0  0  0  0  0  0  0  0  0
    2.3436   -0.7011    0.0000 C   0  0  0  0  0  0  0  0  0  0  0  0
    1.9856   -1.4444    0.0000 O   0  0  0  0  0  0  0  0  0  0  0  0
    1.1813   -1.6280    0.0000 C   0  0  0  0  0  0  0  0  0  0  0  0
   -1.9708   -1.4156    0.0000 C   0  0  0  0  0  0  0  0  0  0  0  0
   -1.5583   -2.1300    0.0000 F   0  0  0  0  0  0  0  0  0  0  0  0
   -2.7958   -1.4156    0.0000 C   0  0  0  0  0  0  0  0  0  0  0  0
   -3.2083   -0.7011    0.0000 C   0  0  0  0  0  0  0  0  0  0  0  0
   -4.0333   -0.7011    0.0000 C   0  0  0  0  0  0  0  0  0  0  0  0
   -4.4458    0.0134    0.0000 O   0  0  0  0  0  0  0  0  0  0  0  0
   -4.4458   -1.4156    0.0000 N   0  0  0  0  0  0  0  0  0  0  0  0
   -5.2708   -1.4156    0.0000 C   0  0  0  0  0  0  0  0  0  0  0  0
   -5.6833   -0.7011    0.0000 C   0  0  0  0  0  0  0  0  0  0  0  0
   -6.5083   -0.7011    0.0000 C   0  0  0  0  0  0  0  0  0  0  0  0
   -6.9208   -1.4156    0.0000 C   0  0  0  0  0  0  0  0  0  0  0  0
   -6.5083   -2.1300    0.0000 C   0  0  0  0  0  0  0  0  0  0  0  0
   -5.6833   -2.1300    0.0000 C   0  0  0  0  0  0  0  0  0  0  0  0
   -5.2708   -2.8445    0.0000 C   0  0  0  0  0  0  0  0  0  0  0  0
   -5.6833   -3.5590    0.0000 F   0  0  0  0  0  0  0  0  0  0  0  0
   -4.4458   -2.8445    0.0000 F   0  0  0  0  0  0  0  0  0  0  0  0
   -3.2083    2.1568    0.0000 C   0  0  0  0  0  0  0  0  0  0  0  0
   -2.4938    2.5693    0.0000 F   0  0  0  0  0  0  0  0  0  0  0  0
   -3.9227    1.7443    0.0000 F   0  0  0  0  0  0  0  0  0  0  0  0
   -3.6208    2.8713    0.0000 F   0  0  0  0  0  0  0  0  0  0  0  0
  1  2  1  0  0  0  0
  2  3  1  0  0  0  0
  3  4  1  0  0  0  0
  4  5  4  0  0  0  0
  5  6  4  0  0  0  0
  6  7  1  0  0  0  0
  7  8  4  0  0  0  0
  8  9  4  0  0  0  0
  9 10  4  0  0  0  0
 10 11  4  0  0  0  0
  7 11  4  0  0  0  0
 11 12  2  0  0  0  0
 10 13  1  0  0  0  0
 13 14  1  0  0  0  0
 14 15  1  0  0  0  0
 15 16  1  0  0  0  0
 16 17  1  0  0  0  0
  9 17  1  0  0  0  0
  6 18  4  0  0  0  0
 18 19  1  0  0  0  0
 18 20  4  0  0  0  0
 20 21  4  0  0  0  0
  4 21  4  0  0  0  0
 21 22  1  0  0  0  0
 22 23  2  0  0  0  0
 22 24  1  0  0  0  0
 24 25  1  0  0  0  0
 25 26  4  0  0  0  0
 26 27  4  0  0  0  0
 27 28  4  0  0  0  0
 28 29  4  0  0  0  0
 29 30  4  0  0  0  0
 25 30  4  0  0  0  0
 30 31  1  0  0  0  0
 31 32  1  0  0  0  0
 31 33  1  0  0  0  0
  2 34  1  0  0  0  0
 34 35  1  0  0  0  0
 34 36  1  0  0  0  0
 34 37  1  0  0  0  0
M  END
> <IC50(uM)>
0.023

> <Outcome>
1.0

> <BindingDB ID>
1020632

> <BindingDB MonomerID>
490561

> <BindingDB Ligand Name>
N-[2-(difluoromethyl)phenyl]-5-fluoro-4-(3-oxo-6,7-dihydro-3H,5H-[1,2,4]triazolo[3,4-c]-[1,4]oxazepin-2(9H)-yl)-2-{[(2S)-1,1,1-trifluoropropan-2-yl]oxy}benzamide::US10968216, Example 229

> <Curation/DataSource>
US Patent

> <Article DOI>
?

> <PMID>
?

> <Patent Number>
US10968216

> <Authors>
Gradl, SN; Nguyen, D; Eis, K; Gunther, J; Stellfeld, T; Janzer, A; Christian, S; Mueller, T; Sheikh, SE; Zhou, HJ; Zhao, C; Sykes, DB; Ferrara, SJ; Liu, K; Herbert, SA; Merz, C; Niehues, M; Nising, CF; Schafer, M; Zimmermann, K; Knablein, J; Thede, K; Faupel, T

> <Link to Ligand in BindingDB>
http://www.bindingdb.org/bind/chemsearch/marvin/MolStructure.jsp?monomerid=490561

> <Link to Ligand-Target Pair in BindingDB>
http://www.bindingdb.org/jsp/dbsearch/PrimarySearch_ki.jsp?energyterm=kJ/mole&tag=r21&monomerid=490561&enzyme=Dihydroorotate+dehydrogenase&column=ki&startPg=0&Increment=50&submit=Search

> <PubChem CID>
134474399

> <PubChem SID>
447117287

$$$$

  Mrv2115 07222212352D          

 21 24  0  0  0  0            999 V2000
    0.4210    3.7125    0.0000 C   0  0  0  0  0  0  0  0  0  0  0  0
    1.1355    3.3000    0.0000 C   0  0  0  0  0  0  0  0  0  0  0  0
    1.8500    3.7125    0.0000 C   0  0  0  0  0  0  0  0  0  0  0  0
    2.5645    3.3000    0.0000 C   0  0  0  0  0  0  0  0  0  0  0  0
    2.5645    2.4750    0.0000 C   0  0  0  0  0  0  0  0  0  0  0  0
    3.2789    2.0625    0.0000 N   0  0  0  0  0  0  0  0  0  0  0  0
    3.2789    1.2375    0.0000 C   0  0  0  0  0  0  0  0  0  0  0  0
    3.9934    0.8250    0.0000 C   0  0  0  0  0  0  0  0  0  0  0  0
    3.9934    0.0000    0.0000 C   0  0  0  0  0  0  0  0  0  0  0  0
    3.2789   -0.4125    0.0000 N   0  0  0  0  0  0  0  0  0  0  0  0
    2.5645    0.0000    0.0000 C   0  0  0  0  0  0  0  0  0  0  0  0
    1.7798   -0.2549    0.0000 N   0  0  0  0  0  0  0  0  0  0  0  0
    1.2949    0.4125    0.0000 C   0  0  0  0  0  0  0  0  0  0  0  0
    1.7798    1.0799    0.0000 N   0  0  0  0  0  0  0  0  0  0  0  0
    2.5645    0.8250    0.0000 N   0  0  0  0  0  0  0  0  0  0  0  0
    4.7780   -0.2549    0.0000 C   0  0  0  0  0  0  0  0  0  0  0  0
    5.2629    0.4125    0.0000 C   0  0  0  0  0  0  0  0  0  0  0  0
    4.7780    1.0799    0.0000 C   0  0  0  0  0  0  0  0  0  0  0  0
    1.8500    2.0625    0.0000 C   0  0  0  0  0  0  0  0  0  0  0  0
    1.1355    2.4750    0.0000 C   0  0  0  0  0  0  0  0  0  0  0  0
    0.4210    2.0625    0.0000 F   0  0  0  0  0  0  0  0  0  0  0  0
  1  2  1  0  0  0  0
  2  3  4  0  0  0  0
  3  4  4  0  0  0  0
  4  5  4  0  0  0  0
  5  6  1  0  0  0  0
  6  7  1  0  0  0  0
  7  8  4  0  0  0  0
  8  9  4  0  0  0  0
  9 10  4  0  0  0  0
 10 11  4  0  0  0  0
 11 12  4  0  0  0  0
 12 13  4  0  0  0  0
 13 14  4  0  0  0  0
 14 15  4  0  0  0  0
  7 15  4  0  0  0  0
 11 15  4  0  0  0  0
  9 16  1  0  0  0  0
 16 17  1  0  0  0  0
 17 18  1  0  0  0  0
  8 18  1  0  0  0  0
  5 19  4  0  0  0  0
 19 20  4  0  0  0  0
  2 20  4  0  0  0  0
 20 21  1  0  0  0  0
M  END
> <IC50(uM)>
100.0

> <Outcome>
0.0

> <BindingDB ID>
50643206

> <BindingDB MonomerID>
50345440

> <BindingDB Ligand Name>
CHEMBL1784717::N-(3-fluoro-4-methylphenyl)-6,7-dihydro-5H-cyclopenta[d][1,2,4]triazolo[1,5-a]pyrimidin-8-amine::US9238653, Table 5, Compound 37

> <Curation/DataSource>
ChEMBL

> <Article DOI>
10.1021/jm200265b

> <PMID>
21517059

> <Patent Number>
?

> <Authors>
Gujjar, R; El Mazouni, F; White, KL; White, J; Creason, S; Shackleford, DM; Deng, X; Charman, WN; Bathurst, I; Burrows, J; Floyd, DM; Matthews, D; Buckner, FS; Charman, SA; Phillips, MA; Rathod, PK

> <Link to Ligand in BindingDB>
http://www.bindingdb.org/bind/chemsearch/marvin/MolStructure.jsp?monomerid=50345440

> <Link to Ligand-Target Pair in BindingDB>
http://www.bindingdb.org/jsp/dbsearch/PrimarySearch_ki.jsp?energyterm=kJ/mole&tag=r21&monomerid=50345440&enzyme=Dihydroorotate+dehydrogenase&column=ki&startPg=0&Increment=50&submit=Search

> <PubChem CID>
22579221

> <PubChem SID>
131348376

$$$$

  Mrv2115 07222212352D          

 26 28  0  0  0  0            999 V2000
    1.4289   -0.0000    0.0000 C   0  0  0  0  0  0  0  0  0  0  0  0
    0.7145   -0.4125    0.0000 C   0  0  0  0  0  0  0  0  0  0  0  0
    0.7145   -1.2375    0.0000 C   0  0  0  0  0  0  0  0  0  0  0  0
    1.3819   -1.7224    0.0000 S   0  0  0  0  0  0  0  0  0  0  0  0
    1.1270   -2.5070    0.0000 C   0  0  0  0  0  0  0  0  0  0  0  0
    1.6119   -3.1745    0.0000 N   0  0  0  0  0  0  0  0  0  0  0  0
    2.4324   -3.0882    0.0000 N   0  0  0  0  0  0  0  0  0  0  0  0
    2.7679   -2.3346    0.0000 C   0  0  0  0  0  0  0  0  0  0  0  0
    3.5884   -2.2483    0.0000 C   0  0  0  0  0  0  0  0  0  0  0  0
    3.9240   -1.4947    0.0000 C   0  0  0  0  0  0  0  0  0  0  0  0
    4.7445   -1.4084    0.0000 C   0  0  0  0  0  0  0  0  0  0  0  0
    5.2294   -2.0759    0.0000 C   0  0  0  0  0  0  0  0  0  0  0  0
    4.8938   -2.8295    0.0000 C   0  0  0  0  0  0  0  0  0  0  0  0
    4.0733   -2.9158    0.0000 C   0  0  0  0  0  0  0  0  0  0  0  0
    3.7378   -3.6695    0.0000 C   0  0  0  0  0  0  0  0  0  0  0  0
    2.9173   -3.7557    0.0000 O   0  0  0  0  0  0  0  0  0  0  0  0
    4.2227   -4.3369    0.0000 O   0  0  0  0  0  0  0  0  0  0  0  0
    0.3020   -2.5070    0.0000 N   0  0  0  0  0  0  0  0  0  0  0  0
    0.0470   -1.7224    0.0000 C   0  0  0  0  0  0  0  0  0  0  0  0
   -0.7376   -1.4675    0.0000 C   0  0  0  0  0  0  0  0  0  0  0  0
   -1.3507   -2.0195    0.0000 C   0  0  0  0  0  0  0  0  0  0  0  0
   -2.1353   -1.7646    0.0000 C   0  0  0  0  0  0  0  0  0  0  0  0
   -2.3068   -0.9576    0.0000 C   0  0  0  0  0  0  0  0  0  0  0  0
   -1.6937   -0.4056    0.0000 C   0  0  0  0  0  0  0  0  0  0  0  0
   -0.9091   -0.6605    0.0000 C   0  0  0  0  0  0  0  0  0  0  0  0
   -0.2960   -0.1085    0.0000 Cl  0  0  0  0  0  0  0  0  0  0  0  0
  1  2  1  0  0  0  0
  2  3  1  0  0  0  0
  3  4  4  0  0  0  0
  4  5  4  0  0  0  0
  5  6  1  0  0  0  0
  6  7  1  0  0  0  0
  7  8  2  0  0  0  0
  8  9  1  0  0  0  0
  9 10  4  0  0  0  0
 10 11  4  0  0  0  0
 11 12  4  0  0  0  0
 12 13  4  0  0  0  0
 13 14  4  0  0  0  0
  9 14  4  0  0  0  0
 14 15  1  0  0  0  0
 15 16  2  0  0  0  0
 15 17  1  0  0  0  0
  5 18  4  0  0  0  0
 18 19  4  0  0  0  0
  3 19  4  0  0  0  0
 19 20  1  0  0  0  0
 20 21  4  0  0  0  0
 21 22  4  0  0  0  0
 22 23  4  0  0  0  0
 23 24  4  0  0  0  0
 24 25  4  0  0  0  0
 20 25  4  0  0  0  0
 25 26  1  0  0  0  0
M  END
> <IC50(uM)>
0.356

> <Outcome>
1.0

> <BindingDB ID>
1001123

> <BindingDB MonomerID>
482809

> <BindingDB Ligand Name>
US10919869, No.  14

> <Curation/DataSource>
US Patent

> <Article DOI>
?

> <PMID>
?

> <Patent Number>
US10919869

> <Authors>
Li, H; Xu, Y; Wang, R; Zhao, Z; Song, W; Xu, L

> <Link to Ligand in BindingDB>
http://www.bindingdb.org/bind/chemsearch/marvin/MolStructure.jsp?monomerid=482809

> <Link to Ligand-Target Pair in BindingDB>
http://www.bindingdb.org/jsp/dbsearch/PrimarySearch_ki.jsp?energyterm=kJ/mole&tag=r21&monomerid=482809&enzyme=Dihydroorotate+dehydrogenase&column=ki&startPg=0&Increment=50&submit=Search

> <PubChem CID>
132158017

> <PubChem SID>
443551950

$$$$

  Mrv2115 07222212352D          

 33 36  0  0  0  0            999 V2000
    7.6391    6.8854    0.0000 C   0  0  0  0  0  0  0  0  0  0  0  0
    7.6391    6.0604    0.0000 N   0  0  0  0  0  0  0  0  0  0  0  0
    8.3536    5.6479    0.0000 C   0  0  0  0  0  0  0  0  0  0  0  0
    6.9246    5.6479    0.0000 C   0  0  0  0  0  0  0  0  0  0  0  0
    6.9246    4.8229    0.0000 C   0  0  0  0  0  0  0  0  0  0  0  0
    7.6391    4.4104    0.0000 C   0  0  0  0  0  0  0  0  0  0  0  0
    7.6391    3.5854    0.0000 C   0  0  0  0  0  0  0  0  0  0  0  0
    6.9246    3.1729    0.0000 C   0  0  0  0  0  0  0  0  0  0  0  0
    6.2102    3.5854    0.0000 C   0  0  0  0  0  0  0  0  0  0  0  0
    5.4957    3.1729    0.0000 C   0  0  0  0  0  0  0  0  0  0  0  0
    5.4957    2.3479    0.0000 C   0  0  0  0  0  0  0  0  0  0  0  0
    6.2102    1.9354    0.0000 F   0  0  0  0  0  0  0  0  0  0  0  0
    4.7812    1.9354    0.0000 C   0  0  0  0  0  0  0  0  0  0  0  0
    4.7812    1.1104    0.0000 F   0  0  0  0  0  0  0  0  0  0  0  0
    4.0668    2.3479    0.0000 C   0  0  0  0  0  0  0  0  0  0  0  0
    3.3523    1.9354    0.0000 C   0  0  0  0  0  0  0  0  0  0  0  0
    3.3523    1.1104    0.0000 C   0  0  0  0  0  0  0  0  0  0  0  0
    2.6378    0.6979    0.0000 C   0  0  0  0  0  0  0  0  0  0  0  0
    2.6378   -0.1271    0.0000 C   0  0  0  0  0  0  0  0  0  0  0  0
    1.9233   -0.5396    0.0000 O   0  0  0  0  0  0  0  0  0  0  0  0
    3.3523   -0.5396    0.0000 O   0  0  0  0  0  0  0  0  0  0  0  0
    1.9233    1.1104    0.0000 C   0  0  0  0  0  0  0  0  0  0  0  0
    1.9233    1.9354    0.0000 C   0  0  0  0  0  0  0  0  0  0  0  0
    2.6378    2.3479    0.0000 C   0  0  0  0  0  0  0  0  0  0  0  0
    1.1387    2.1904    0.0000 N   0  0  0  0  0  0  0  0  0  0  0  0
    0.6538    1.5229    0.0000 N   0  0  0  0  0  0  0  0  0  0  0  0
    1.1387    0.8555    0.0000 N   0  0  0  0  0  0  0  0  0  0  0  0
    0.8838    0.0709    0.0000 C   0  0  0  0  0  0  0  0  0  0  0  0
    4.0668    3.1729    0.0000 C   0  0  0  0  0  0  0  0  0  0  0  0
    3.3523    3.5854    0.0000 F   0  0  0  0  0  0  0  0  0  0  0  0
    4.7812    3.5854    0.0000 C   0  0  0  0  0  0  0  0  0  0  0  0
    4.7812    4.4104    0.0000 F   0  0  0  0  0  0  0  0  0  0  0  0
    6.2102    4.4104    0.0000 C   0  0  0  0  0  0  0  0  0  0  0  0
  1  2  1  0  0  0  0
  2  3  1  0  0  0  0
  2  4  1  0  0  0  0
  4  5  1  0  0  0  0
  5  6  4  0  0  0  0
  6  7  4  0  0  0  0
  7  8  4  0  0  0  0
  8  9  4  0  0  0  0
  9 10  1  0  0  0  0
 10 11  4  0  0  0  0
 11 12  1  0  0  0  0
 11 13  4  0  0  0  0
 13 14  1  0  0  0  0
 13 15  4  0  0  0  0
 15 16  1  0  0  0  0
 16 17  4  0  0  0  0
 17 18  4  0  0  0  0
 18 19  1  0  0  0  0
 19 20  2  0  0  0  0
 19 21  1  0  0  0  0
 18 22  4  0  0  0  0
 22 23  4  0  0  0  0
 23 24  4  0  0  0  0
 16 24  4  0  0  0  0
 23 25  4  0  0  0  0
 25 26  4  0  0  0  0
 26 27  4  0  0  0  0
 22 27  4  0  0  0  0
 27 28  1  0  0  0  0
 15 29  4  0  0  0  0
 29 30  1  0  0  0  0
 29 31  4  0  0  0  0
 10 31  4  0  0  0  0
 31 32  1  0  0  0  0
  9 33  4  0  0  0  0
  5 33  4  0  0  0  0
M  END
> <IC50(uM)>
0.55

> <Outcome>
1.0

> <BindingDB ID>
1100175

> <BindingDB MonomerID>
520634

> <BindingDB Ligand Name>
5-(3'-((dimethylamino)methyl)-2,3,5,6-tetrafluoro-[1,1'-biphenyl]-4-yl)-1-methyl- 1H-benzo[d][1,2,3]triazole-7-carboxylic acid,::US11147801, Compound 40

> <Curation/DataSource>
US Patent

> <Article DOI>
?

> <PMID>
?

> <Patent Number>
US11147801

> <Authors>
Nellore, K; Hosahalli, S

> <Link to Ligand in BindingDB>
http://www.bindingdb.org/bind/chemsearch/marvin/MolStructure.jsp?monomerid=520634

> <Link to Ligand-Target Pair in BindingDB>
http://www.bindingdb.org/jsp/dbsearch/PrimarySearch_ki.jsp?energyterm=kJ/mole&tag=r21&monomerid=520634&enzyme=Dihydroorotate+dehydrogenase&column=ki&startPg=0&Increment=50&submit=Search

> <PubChem CID>
?

> <PubChem SID>
?

$$$$

  Mrv2115 07222212352D          

 31 33  0  0  0  0            999 V2000
    0.0000    0.0000    0.0000 C   0  0  0  0  0  0  0  0  0  0  0  0
    0.7145   -0.4125    0.0000 C   0  0  0  0  0  0  0  0  0  0  0  0
    0.7145   -1.2375    0.0000 O   0  0  0  0  0  0  0  0  0  0  0  0
    1.4289   -1.6500    0.0000 C   0  0  0  0  0  0  0  0  0  0  0  0
    2.1434   -1.2375    0.0000 O   0  0  0  0  0  0  0  0  0  0  0  0
    1.4289   -2.4750    0.0000 C   0  0  0  0  0  0  0  0  0  0  0  0
    2.0964   -2.9599    0.0000 S   0  0  0  0  0  0  0  0  0  0  0  0
    1.8414   -3.7445    0.0000 C   0  0  0  0  0  0  0  0  0  0  0  0
    2.3264   -4.4120    0.0000 N   0  0  0  0  0  0  0  0  0  0  0  0
    3.1468   -4.3257    0.0000 C   0  0  0  0  0  0  0  0  0  0  0  0
    3.4824   -3.5721    0.0000 C   0  0  0  0  0  0  0  0  0  0  0  0
    4.3029   -3.4858    0.0000 C   0  0  0  0  0  0  0  0  0  0  0  0
    4.7878   -4.1533    0.0000 C   0  0  0  0  0  0  0  0  0  0  0  0
    5.6083   -4.0670    0.0000 Cl  0  0  0  0  0  0  0  0  0  0  0  0
    4.4522   -4.9070    0.0000 C   0  0  0  0  0  0  0  0  0  0  0  0
    4.9372   -5.5744    0.0000 C   0  0  0  0  0  0  0  0  0  0  0  0
    5.4221   -6.2418    0.0000 F   0  0  0  0  0  0  0  0  0  0  0  0
    4.2697   -6.0593    0.0000 F   0  0  0  0  0  0  0  0  0  0  0  0
    5.6046   -5.0895    0.0000 F   0  0  0  0  0  0  0  0  0  0  0  0
    3.6318   -4.9932    0.0000 C   0  0  0  0  0  0  0  0  0  0  0  0
    1.0164   -3.7445    0.0000 N   0  0  0  0  0  0  0  0  0  0  0  0
    0.7615   -2.9599    0.0000 C   0  0  0  0  0  0  0  0  0  0  0  0
   -0.0231   -2.7050    0.0000 N   0  0  0  0  0  0  0  0  0  0  0  0
   -0.6362   -3.2570    0.0000 C   0  0  0  0  0  0  0  0  0  0  0  0
   -0.4647   -4.0640    0.0000 O   0  0  0  0  0  0  0  0  0  0  0  0
   -1.4208   -3.0021    0.0000 C   0  0  0  0  0  0  0  0  0  0  0  0
   -2.0339   -3.5541    0.0000 C   0  0  0  0  0  0  0  0  0  0  0  0
   -2.8186   -3.2992    0.0000 C   0  0  0  0  0  0  0  0  0  0  0  0
   -2.9901   -2.4922    0.0000 C   0  0  0  0  0  0  0  0  0  0  0  0
   -2.3770   -1.9402    0.0000 C   0  0  0  0  0  0  0  0  0  0  0  0
   -1.5924   -2.1951    0.0000 C   0  0  0  0  0  0  0  0  0  0  0  0
  1  2  1  0  0  0  0
  2  3  1  0  0  0  0
  3  4  1  0  0  0  0
  4  5  2  0  0  0  0
  4  6  1  0  0  0  0
  6  7  4  0  0  0  0
  7  8  4  0  0  0  0
  8  9  1  0  0  0  0
  9 10  1  0  0  0  0
 10 11  4  0  0  0  0
 11 12  4  0  0  0  0
 12 13  4  0  0  0  0
 13 14  1  0  0  0  0
 13 15  4  0  0  0  0
 15 16  1  0  0  0  0
 16 17  1  0  0  0  0
 16 18  1  0  0  0  0
 16 19  1  0  0  0  0
 15 20  4  0  0  0  0
 10 20  4  0  0  0  0
  8 21  4  0  0  0  0
 21 22  4  0  0  0  0
  6 22  4  0  0  0  0
 22 23  1  0  0  0  0
 23 24  1  0  0  0  0
 24 25  2  0  0  0  0
 24 26  1  0  0  0  0
 26 27  4  0  0  0  0
 27 28  4  0  0  0  0
 28 29  4  0  0  0  0
 29 30  4  0  0  0  0
 30 31  4  0  0  0  0
 26 31  4  0  0  0  0
M  END
> <IC50(uM)>
10.0

> <Outcome>
0.0

> <BindingDB ID>
50312421

> <BindingDB MonomerID>
50071687

> <BindingDB Ligand Name>
CHEMBL3410587

> <Curation/DataSource>
ChEMBL

> <Article DOI>
10.1021/jm501127s

> <PMID>
25580811

> <Patent Number>
?

> <Authors>
Zhu, J; Han, L; Diao, Y; Ren, X; Xu, M; Xu, L; Li, S; Li, Q; Dong, D; Huang, J; Liu, X; Zhao, Z; Wang, R; Zhu, L; Xu, Y; Qian, X; Li, H

> <Link to Ligand in BindingDB>
http://www.bindingdb.org/bind/chemsearch/marvin/MolStructure.jsp?monomerid=50071687

> <Link to Ligand-Target Pair in BindingDB>
http://www.bindingdb.org/jsp/dbsearch/PrimarySearch_ki.jsp?energyterm=kJ/mole&tag=r21&monomerid=50071687&enzyme=Dihydroorotate+dehydrogenase&column=ki&startPg=0&Increment=50&submit=Search

> <PubChem CID>
118732503

> <PubChem SID>
103965397

$$$$

  Mrv2115 07222212352D          

 25 27  0  0  0  0            999 V2000
   -1.4087    0.0165    0.0000 C   0  0  0  0  0  0  0  0  0  0  0  0
   -0.5837    0.0165    0.0000 C   0  0  0  0  0  0  0  0  0  0  0  0
   -0.1712   -0.6979    0.0000 C   0  0  0  0  0  0  0  0  0  0  0  0
   -0.5837   -1.4124    0.0000 C   0  0  0  0  0  0  0  0  0  0  0  0
    0.6538   -0.6979    0.0000 C   0  0  0  0  0  0  0  0  0  0  0  0
    1.1387   -0.0305    0.0000 N   0  0  0  0  0  0  0  0  0  0  0  0
    1.9233   -0.2854    0.0000 C   0  0  0  0  0  0  0  0  0  0  0  0
    2.6378    0.1271    0.0000 N   0  0  0  0  0  0  0  0  0  0  0  0
    3.3523   -0.2854    0.0000 C   0  0  0  0  0  0  0  0  0  0  0  0
    4.0668    0.1271    0.0000 C   0  0  0  0  0  0  0  0  0  0  0  0
    3.3523   -1.1104    0.0000 C   0  0  0  0  0  0  0  0  0  0  0  0
    2.6378   -1.5229    0.0000 C   0  0  0  0  0  0  0  0  0  0  0  0
    2.6378   -2.3479    0.0000 N   0  0  0  0  0  0  0  0  0  0  0  0
    1.9233   -2.7604    0.0000 C   0  0  0  0  0  0  0  0  0  0  0  0
    1.9233   -3.5854    0.0000 C   0  0  0  0  0  0  0  0  0  0  0  0
    1.2089   -3.9979    0.0000 C   0  0  0  0  0  0  0  0  0  0  0  0
    0.4944   -3.5854    0.0000 C   0  0  0  0  0  0  0  0  0  0  0  0
   -0.2201   -3.9979    0.0000 C   0  0  0  0  0  0  0  0  0  0  0  0
   -0.9345   -4.4104    0.0000 F   0  0  0  0  0  0  0  0  0  0  0  0
   -0.6326   -3.2835    0.0000 F   0  0  0  0  0  0  0  0  0  0  0  0
    0.1924   -4.7124    0.0000 F   0  0  0  0  0  0  0  0  0  0  0  0
    0.4944   -2.7604    0.0000 C   0  0  0  0  0  0  0  0  0  0  0  0
    1.2089   -2.3479    0.0000 C   0  0  0  0  0  0  0  0  0  0  0  0
    1.9233   -1.1104    0.0000 N   0  0  0  0  0  0  0  0  0  0  0  0
    1.1387   -1.3654    0.0000 N   0  0  0  0  0  0  0  0  0  0  0  0
  1  2  1  0  0  0  0
  2  3  1  0  0  0  0
  3  4  1  0  0  0  0
  3  5  1  0  0  0  0
  5  6  4  0  0  0  0
  6  7  4  0  0  0  0
  7  8  4  0  0  0  0
  8  9  4  0  0  0  0
  9 10  1  0  0  0  0
  9 11  4  0  0  0  0
 11 12  4  0  0  0  0
 12 13  1  0  0  0  0
 13 14  1  0  0  0  0
 14 15  4  0  0  0  0
 15 16  4  0  0  0  0
 16 17  4  0  0  0  0
 17 18  1  0  0  0  0
 18 19  1  0  0  0  0
 18 20  1  0  0  0  0
 18 21  1  0  0  0  0
 17 22  4  0  0  0  0
 22 23  4  0  0  0  0
 14 23  4  0  0  0  0
 12 24  4  0  0  0  0
  7 24  4  0  0  0  0
 24 25  4  0  0  0  0
  5 25  4  0  0  0  0
M  END
> <IC50(uM)>
100.0

> <Outcome>
0.0

> <BindingDB ID>
50720168

> <BindingDB MonomerID>
50365238

> <BindingDB Ligand Name>
CHEMBL1956274

> <Curation/DataSource>
ChEMBL

> <Article DOI>
10.1021/jm200592f

> <PMID>
21696174

> <Patent Number>
?

> <Authors>
Coteron, JM; Marco, M; Esquivias, J; Deng, X; White, KL; White, J; Koltun, M; El Mazouni, F; Kokkonda, S; Katneni, K; Bhamidipati, R; Shackleford, DM; Angulo-Barturen, I; Ferrer, SB; Jimenez-Diaz, MB; Gamo, FJ; Goldsmith, EJ; Charman, WN; Bathurst, I; Floyd, D; Matthews, D; Burrows, JN; Rathod, PK; Charman, SA; Phillips, MA

> <Link to Ligand in BindingDB>
http://www.bindingdb.org/bind/chemsearch/marvin/MolStructure.jsp?monomerid=50365238

> <Link to Ligand-Target Pair in BindingDB>
http://www.bindingdb.org/jsp/dbsearch/PrimarySearch_ki.jsp?energyterm=kJ/mole&tag=r21&monomerid=50365238&enzyme=Dihydroorotate+dehydrogenase&column=ki&startPg=0&Increment=50&submit=Search

> <PubChem CID>
53392617

> <PubChem SID>
136969300

$$$$

  Mrv2115 07222212352D          

 37 40  0  0  0  0            999 V2000
   -3.1034    2.1599    0.0000 C   0  0  0  0  0  0  0  0  0  0  0  0
   -2.6909    1.4455    0.0000 C   0  0  0  0  0  0  0  0  0  0  0  0
   -3.1034    0.7310    0.0000 O   0  0  0  0  0  0  0  0  0  0  0  0
   -2.6909    0.0165    0.0000 C   0  0  0  0  0  0  0  0  0  0  0  0
   -1.8659    0.0165    0.0000 C   0  0  0  0  0  0  0  0  0  0  0  0
   -1.4534   -0.6979    0.0000 C   0  0  0  0  0  0  0  0  0  0  0  0
   -0.6284   -0.6979    0.0000 N   0  0  0  0  0  0  0  0  0  0  0  0
   -0.1435   -1.3654    0.0000 N   0  0  0  0  0  0  0  0  0  0  0  0
    0.6411   -1.1104    0.0000 C   0  0  0  0  0  0  0  0  0  0  0  0
    0.6411   -0.2854    0.0000 N   0  0  0  0  0  0  0  0  0  0  0  0
   -0.1435   -0.0305    0.0000 C   0  0  0  0  0  0  0  0  0  0  0  0
   -0.3984    0.7541    0.0000 O   0  0  0  0  0  0  0  0  0  0  0  0
    1.3556    0.1271    0.0000 C   0  0  0  0  0  0  0  0  0  0  0  0
    2.0701   -0.2854    0.0000 C   0  0  0  0  0  0  0  0  0  0  0  0
    2.0701   -1.1104    0.0000 C   0  0  0  0  0  0  0  0  0  0  0  0
    1.3556   -1.5229    0.0000 C   0  0  0  0  0  0  0  0  0  0  0  0
   -1.8659   -1.4124    0.0000 C   0  0  0  0  0  0  0  0  0  0  0  0
   -1.4534   -2.1269    0.0000 F   0  0  0  0  0  0  0  0  0  0  0  0
   -2.6909   -1.4124    0.0000 C   0  0  0  0  0  0  0  0  0  0  0  0
   -3.1034   -0.6979    0.0000 C   0  0  0  0  0  0  0  0  0  0  0  0
   -3.9284   -0.6979    0.0000 C   0  0  0  0  0  0  0  0  0  0  0  0
   -4.3409    0.0165    0.0000 O   0  0  0  0  0  0  0  0  0  0  0  0
   -4.3409   -1.4124    0.0000 N   0  0  0  0  0  0  0  0  0  0  0  0
   -5.1659   -1.4124    0.0000 C   0  0  0  0  0  0  0  0  0  0  0  0
   -5.5784   -2.1269    0.0000 C   0  0  0  0  0  0  0  0  0  0  0  0
   -6.4034   -2.1269    0.0000 C   0  0  0  0  0  0  0  0  0  0  0  0
   -6.8159   -1.4124    0.0000 C   0  0  0  0  0  0  0  0  0  0  0  0
   -7.6409   -1.4124    0.0000 C   0  0  0  0  0  0  0  0  0  0  0  0
   -8.4659   -1.4124    0.0000 F   0  0  0  0  0  0  0  0  0  0  0  0
   -7.6409   -0.5874    0.0000 F   0  0  0  0  0  0  0  0  0  0  0  0
   -7.6409   -2.2374    0.0000 F   0  0  0  0  0  0  0  0  0  0  0  0
   -6.4034   -0.6979    0.0000 C   0  0  0  0  0  0  0  0  0  0  0  0
   -5.5784   -0.6979    0.0000 C   0  0  0  0  0  0  0  0  0  0  0  0
   -1.8659    1.4455    0.0000 C   0  0  0  0  0  0  0  0  0  0  0  0
   -1.8659    0.6205    0.0000 F   0  0  0  0  0  0  0  0  0  0  0  0
   -1.8659    2.2705    0.0000 F   0  0  0  0  0  0  0  0  0  0  0  0
   -1.0409    1.4455    0.0000 F   0  0  0  0  0  0  0  0  0  0  0  0
  1  2  1  0  0  0  0
  2  3  1  0  0  0  0
  3  4  1  0  0  0  0
  4  5  4  0  0  0  0
  5  6  4  0  0  0  0
  6  7  1  0  0  0  0
  7  8  4  0  0  0  0
  8  9  4  0  0  0  0
  9 10  4  0  0  0  0
 10 11  4  0  0  0  0
  7 11  4  0  0  0  0
 11 12  2  0  0  0  0
 10 13  1  0  0  0  0
 13 14  1  0  0  0  0
 14 15  1  0  0  0  0
 15 16  1  0  0  0  0
  9 16  1  0  0  0  0
  6 17  4  0  0  0  0
 17 18  1  0  0  0  0
 17 19  4  0  0  0  0
 19 20  4  0  0  0  0
  4 20  4  0  0  0  0
 20 21  1  0  0  0  0
 21 22  2  0  0  0  0
 21 23  1  0  0  0  0
 23 24  1  0  0  0  0
 24 25  4  0  0  0  0
 25 26  4  0  0  0  0
 26 27  4  0  0  0  0
 27 28  1  0  0  0  0
 28 29  1  0  0  0  0
 28 30  1  0  0  0  0
 28 31  1  0  0  0  0
 27 32  4  0  0  0  0
 32 33  4  0  0  0  0
 24 33  4  0  0  0  0
  2 34  1  0  0  0  0
 34 35  1  0  0  0  0
 34 36  1  0  0  0  0
 34 37  1  0  0  0  0
M  END
> <IC50(uM)>
0.6

> <Outcome>
1.0

> <BindingDB ID>
1020427

> <BindingDB MonomerID>
490378

> <BindingDB Ligand Name>
5-fluoro-4-(3-oxo-5,6,7,8-tetrahydro[1,2,4]triazolo[4,3-a]pyridin-2(3H)-yl)-N-[4-(trifluoromethyl)-phenyl]-2-{[(2S)-1,1,1-trifluoropropan-2-yl]oxy}benzamide::US10968216, Example 46

> <Curation/DataSource>
US Patent

> <Article DOI>
?

> <PMID>
?

> <Patent Number>
US10968216

> <Authors>
Gradl, SN; Nguyen, D; Eis, K; Gunther, J; Stellfeld, T; Janzer, A; Christian, S; Mueller, T; Sheikh, SE; Zhou, HJ; Zhao, C; Sykes, DB; Ferrara, SJ; Liu, K; Herbert, SA; Merz, C; Niehues, M; Nising, CF; Schafer, M; Zimmermann, K; Knablein, J; Thede, K; Faupel, T

> <Link to Ligand in BindingDB>
http://www.bindingdb.org/bind/chemsearch/marvin/MolStructure.jsp?monomerid=490378

> <Link to Ligand-Target Pair in BindingDB>
http://www.bindingdb.org/jsp/dbsearch/PrimarySearch_ki.jsp?energyterm=kJ/mole&tag=r21&monomerid=490378&enzyme=Dihydroorotate+dehydrogenase&column=ki&startPg=0&Increment=50&submit=Search

> <PubChem CID>
134474090

> <PubChem SID>
447117105

$$$$

  Mrv2115 07222212352D          

 27 30  0  0  0  0            999 V2000
    4.1648    1.7922    0.0000 C   0  0  0  0  0  0  0  0  0  0  0  0
    3.3523    1.9354    0.0000 C   0  0  0  0  0  0  0  0  0  0  0  0
    3.6345    2.7107    0.0000 C   0  0  0  0  0  0  0  0  0  0  0  0
    3.3523    1.1104    0.0000 C   0  0  0  0  0  0  0  0  0  0  0  0
    2.6378    0.6979    0.0000 C   0  0  0  0  0  0  0  0  0  0  0  0
    2.6378   -0.1271    0.0000 O   0  0  0  0  0  0  0  0  0  0  0  0
    1.9233    1.1104    0.0000 C   0  0  0  0  0  0  0  0  0  0  0  0
    1.1387    0.8555    0.0000 N   0  0  0  0  0  0  0  0  0  0  0  0
    0.6538    1.5229    0.0000 N   0  0  0  0  0  0  0  0  0  0  0  0
    1.1387    2.1904    0.0000 N   0  0  0  0  0  0  0  0  0  0  0  0
    0.8838    2.9750    0.0000 C   0  0  0  0  0  0  0  0  0  0  0  0
    0.0768    3.1465    0.0000 C   0  0  0  0  0  0  0  0  0  0  0  0
   -0.1781    3.9312    0.0000 C   0  0  0  0  0  0  0  0  0  0  0  0
   -0.9851    4.1027    0.0000 F   0  0  0  0  0  0  0  0  0  0  0  0
    0.3739    4.5442    0.0000 C   0  0  0  0  0  0  0  0  0  0  0  0
    0.1190    5.3289    0.0000 C   0  0  0  0  0  0  0  0  0  0  0  0
   -0.6880    5.5004    0.0000 C   0  0  0  0  0  0  0  0  0  0  0  0
   -0.9429    6.2850    0.0000 C   0  0  0  0  0  0  0  0  0  0  0  0
   -0.3909    6.8981    0.0000 C   0  0  0  0  0  0  0  0  0  0  0  0
    0.4161    6.7266    0.0000 C   0  0  0  0  0  0  0  0  0  0  0  0
    0.6710    5.9420    0.0000 C   0  0  0  0  0  0  0  0  0  0  0  0
    1.4780    5.7704    0.0000 F   0  0  0  0  0  0  0  0  0  0  0  0
    1.1809    4.3727    0.0000 C   0  0  0  0  0  0  0  0  0  0  0  0
    1.7329    4.9858    0.0000 F   0  0  0  0  0  0  0  0  0  0  0  0
    1.4358    3.5881    0.0000 C   0  0  0  0  0  0  0  0  0  0  0  0
    1.9233    1.9354    0.0000 C   0  0  0  0  0  0  0  0  0  0  0  0
    2.6378    2.3479    0.0000 C   0  0  0  0  0  0  0  0  0  0  0  0
  1  2  1  0  0  0  0
  2  3  1  0  0  0  0
  2  4  1  0  0  0  0
  4  5  1  0  0  0  0
  5  6  2  0  0  0  0
  5  7  1  0  0  0  0
  7  8  4  0  0  0  0
  8  9  4  0  0  0  0
  9 10  4  0  0  0  0
 10 11  1  0  0  0  0
 11 12  4  0  0  0  0
 12 13  4  0  0  0  0
 13 14  1  0  0  0  0
 13 15  4  0  0  0  0
 15 16  1  0  0  0  0
 16 17  4  0  0  0  0
 17 18  4  0  0  0  0
 18 19  4  0  0  0  0
 19 20  4  0  0  0  0
 20 21  4  0  0  0  0
 16 21  4  0  0  0  0
 21 22  1  0  0  0  0
 15 23  4  0  0  0  0
 23 24  1  0  0  0  0
 23 25  4  0  0  0  0
 11 25  4  0  0  0  0
 10 26  4  0  0  0  0
  7 26  4  0  0  0  0
 26 27  1  0  0  0  0
  2 27  1  0  0  0  0
M  END
> <IC50(uM)>
1.0

> <Outcome>
1.0

> <BindingDB ID>
51338213

> <BindingDB MonomerID>
50541687

> <BindingDB Ligand Name>
CHEMBL4643548

> <Curation/DataSource>
ChEMBL

> <Article DOI>
10.1021/acs.jmedchem.0c00512

> <PMID>
32496056

> <Patent Number>
?

> <Authors>
Zuo, Z; Liu, X; Qian, X; Zeng, T; Sang, N; Liu, H; Zhou, Y; Tao, L; Zhou, X; Su, N; Yu, Y; Chen, Q; Luo, Y; Zhao, Y

> <Link to Ligand in BindingDB>
http://www.bindingdb.org/bind/chemsearch/marvin/MolStructure.jsp?monomerid=50541687

> <Link to Ligand-Target Pair in BindingDB>
http://www.bindingdb.org/jsp/dbsearch/PrimarySearch_ki.jsp?energyterm=kJ/mole&tag=r21&monomerid=50541687&enzyme=Dihydroorotate+dehydrogenase&column=ki&startPg=0&Increment=50&submit=Search

> <PubChem CID>
156018180

> <PubChem SID>
442143250

$$$$

  Mrv2115 07222212352D          

 21 24  0  0  0  0            999 V2000
   -0.1712   -0.6979    0.0000 C   0  0  0  0  0  0  0  0  0  0  0  0
    0.6538   -0.6979    0.0000 C   0  0  0  0  0  0  0  0  0  0  0  0
    1.1387   -0.0305    0.0000 N   0  0  0  0  0  0  0  0  0  0  0  0
    1.9233   -0.2854    0.0000 C   0  0  0  0  0  0  0  0  0  0  0  0
    2.6378    0.1271    0.0000 C   0  0  0  0  0  0  0  0  0  0  0  0
    3.3523   -0.2854    0.0000 C   0  0  0  0  0  0  0  0  0  0  0  0
    3.3523   -1.1104    0.0000 C   0  0  0  0  0  0  0  0  0  0  0  0
    2.6378   -1.5229    0.0000 C   0  0  0  0  0  0  0  0  0  0  0  0
    1.9233   -1.1104    0.0000 C   0  0  0  0  0  0  0  0  0  0  0  0
    1.1387   -1.3654    0.0000 N   0  0  0  0  0  0  0  0  0  0  0  0
    0.8838   -2.1500    0.0000 C   0  0  0  0  0  0  0  0  0  0  0  0
    1.3687   -2.8174    0.0000 C   0  0  0  0  0  0  0  0  0  0  0  0
    0.8838   -3.4849    0.0000 C   0  0  0  0  0  0  0  0  0  0  0  0
    0.0992   -3.2299    0.0000 C   0  0  0  0  0  0  0  0  0  0  0  0
   -0.5683   -3.7149    0.0000 C   0  0  0  0  0  0  0  0  0  0  0  0
   -1.3220   -3.3793    0.0000 O   0  0  0  0  0  0  0  0  0  0  0  0
   -0.4820   -4.5353    0.0000 N   0  0  0  0  0  0  0  0  0  0  0  0
   -1.1495   -5.0203    0.0000 C   0  0  0  0  0  0  0  0  0  0  0  0
   -1.4850   -5.7739    0.0000 C   0  0  0  0  0  0  0  0  0  0  0  0
   -1.9700   -5.1065    0.0000 C   0  0  0  0  0  0  0  0  0  0  0  0
    0.0992   -2.4049    0.0000 S   0  0  0  0  0  0  0  0  0  0  0  0
  1  2  1  0  0  0  0
  2  3  4  0  0  0  0
  3  4  4  0  0  0  0
  4  5  4  0  0  0  0
  5  6  4  0  0  0  0
  6  7  4  0  0  0  0
  7  8  4  0  0  0  0
  8  9  4  0  0  0  0
  4  9  4  0  0  0  0
  9 10  4  0  0  0  0
  2 10  4  0  0  0  0
 10 11  1  0  0  0  0
 11 12  4  0  0  0  0
 12 13  4  0  0  0  0
 13 14  4  0  0  0  0
 14 15  1  0  0  0  0
 15 16  2  0  0  0  0
 15 17  1  0  0  0  0
 17 18  1  0  0  0  0
 18 19  1  0  0  0  0
 19 20  1  0  0  0  0
 18 20  1  0  0  0  0
 14 21  4  0  0  0  0
 11 21  4  0  0  0  0
M  END
> <IC50(uM)>
30.0

> <Outcome>
0.0

> <BindingDB ID>
50924664

> <BindingDB MonomerID>
50379146

> <BindingDB Ligand Name>
CHEMBL2012829::US8703811, 31::US8703811, 32

> <Curation/DataSource>
ChEMBL

> <Article DOI>
10.1021/ml200143c

> <PMID>
24900364

> <Patent Number>
?

> <Authors>
Skerlj, RT; Bastos, CM; Booker, ML; Kramer, ML; Barker, RH; Celatka, CA; Munoz, B; Sidhu, AB; Cortese, JF; Wittlin, S; Papastogiannidis, P; Angulo-Barturen, I; Jimenez-Diaz, MB; Sybertz, E

> <Link to Ligand in BindingDB>
http://www.bindingdb.org/bind/chemsearch/marvin/MolStructure.jsp?monomerid=50379146

> <Link to Ligand-Target Pair in BindingDB>
http://www.bindingdb.org/jsp/dbsearch/PrimarySearch_ki.jsp?energyterm=kJ/mole&tag=r21&monomerid=50379146&enzyme=Dihydroorotate+dehydrogenase&column=ki&startPg=0&Increment=50&submit=Search

> <PubChem CID>
58284852

> <PubChem SID>
160858229

$$$$

  Mrv2115 07222212352D          

 41 45  0  0  0  0            999 V2000
   -4.3409   -2.8414    0.0000 C   0  0  0  0  0  0  0  0  0  0  0  0
   -5.1659   -2.8414    0.0000 O   0  0  0  0  0  0  0  0  0  0  0  0
   -5.5784   -2.1269    0.0000 C   0  0  0  0  0  0  0  0  0  0  0  0
   -6.4034   -2.1269    0.0000 C   0  0  0  0  0  0  0  0  0  0  0  0
   -6.8159   -1.4124    0.0000 C   0  0  0  0  0  0  0  0  0  0  0  0
   -6.4034   -0.6979    0.0000 C   0  0  0  0  0  0  0  0  0  0  0  0
   -6.8159    0.0165    0.0000 C   0  0  0  0  0  0  0  0  0  0  0  0
   -7.2284    0.7310    0.0000 F   0  0  0  0  0  0  0  0  0  0  0  0
   -7.5304   -0.3960    0.0000 F   0  0  0  0  0  0  0  0  0  0  0  0
   -6.1015    0.4290    0.0000 F   0  0  0  0  0  0  0  0  0  0  0  0
   -5.5784   -0.6979    0.0000 C   0  0  0  0  0  0  0  0  0  0  0  0
   -5.1659   -1.4124    0.0000 C   0  0  0  0  0  0  0  0  0  0  0  0
   -4.3409   -1.4124    0.0000 N   0  0  0  0  0  0  0  0  0  0  0  0
   -3.9284   -0.6979    0.0000 C   0  0  0  0  0  0  0  0  0  0  0  0
   -4.3409    0.0165    0.0000 O   0  0  0  0  0  0  0  0  0  0  0  0
   -3.1034   -0.6979    0.0000 C   0  0  0  0  0  0  0  0  0  0  0  0
   -2.6909    0.0165    0.0000 C   0  0  0  0  0  0  0  0  0  0  0  0
   -1.8659    0.0165    0.0000 C   0  0  0  0  0  0  0  0  0  0  0  0
   -1.4534    0.7310    0.0000 F   0  0  0  0  0  0  0  0  0  0  0  0
   -1.4534   -0.6979    0.0000 C   0  0  0  0  0  0  0  0  0  0  0  0
   -0.6284   -0.6979    0.0000 N   0  0  0  0  0  0  0  0  0  0  0  0
   -0.1435   -1.3654    0.0000 N   0  0  0  0  0  0  0  0  0  0  0  0
    0.6411   -1.1104    0.0000 C   0  0  0  0  0  0  0  0  0  0  0  0
    0.6411   -0.2854    0.0000 N   0  0  0  0  0  0  0  0  0  0  0  0
   -0.1435   -0.0305    0.0000 C   0  0  0  0  0  0  0  0  0  0  0  0
   -0.3984    0.7541    0.0000 O   0  0  0  0  0  0  0  0  0  0  0  0
    1.3556    0.1271    0.0000 C   0  0  0  0  0  0  0  0  0  0  0  0
    2.0701   -0.2854    0.0000 C   0  0  0  0  0  0  0  0  0  0  0  0
    2.0701   -1.1104    0.0000 C   0  0  0  0  0  0  0  0  0  0  0  0
    1.3556   -1.5229    0.0000 C   0  0  0  0  0  0  0  0  0  0  0  0
   -1.8659   -1.4124    0.0000 C   0  0  0  0  0  0  0  0  0  0  0  0
   -2.6909   -1.4124    0.0000 C   0  0  0  0  0  0  0  0  0  0  0  0
   -3.1034   -2.1269    0.0000 O   0  0  0  0  0  0  0  0  0  0  0  0
   -2.6909   -2.8414    0.0000 C   0  0  0  0  0  0  0  0  0  0  0  0
   -1.8659   -2.8414    0.0000 C   0  0  0  0  0  0  0  0  0  0  0  0
   -3.1034   -3.5558    0.0000 C   0  0  0  0  0  0  0  0  0  0  0  0
   -2.6909   -4.2703    0.0000 C   0  0  0  0  0  0  0  0  0  0  0  0
   -3.1034   -4.9848    0.0000 C   0  0  0  0  0  0  0  0  0  0  0  0
   -3.9284   -4.9848    0.0000 C   0  0  0  0  0  0  0  0  0  0  0  0
   -4.3409   -4.2703    0.0000 C   0  0  0  0  0  0  0  0  0  0  0  0
   -3.9284   -3.5558    0.0000 C   0  0  0  0  0  0  0  0  0  0  0  0
  1  2  1  0  0  0  0
  2  3  1  0  0  0  0
  3  4  4  0  0  0  0
  4  5  4  0  0  0  0
  5  6  4  0  0  0  0
  6  7  1  0  0  0  0
  7  8  1  0  0  0  0
  7  9  1  0  0  0  0
  7 10  1  0  0  0  0
  6 11  4  0  0  0  0
 11 12  4  0  0  0  0
  3 12  4  0  0  0  0
 12 13  1  0  0  0  0
 13 14  1  0  0  0  0
 14 15  2  0  0  0  0
 14 16  1  0  0  0  0
 16 17  4  0  0  0  0
 17 18  4  0  0  0  0
 18 19  1  0  0  0  0
 18 20  4  0  0  0  0
 20 21  1  0  0  0  0
 21 22  4  0  0  0  0
 22 23  4  0  0  0  0
 23 24  4  0  0  0  0
 24 25  4  0  0  0  0
 21 25  4  0  0  0  0
 25 26  2  0  0  0  0
 24 27  1  0  0  0  0
 27 28  1  0  0  0  0
 28 29  1  0  0  0  0
 29 30  1  0  0  0  0
 23 30  1  0  0  0  0
 20 31  4  0  0  0  0
 31 32  4  0  0  0  0
 16 32  4  0  0  0  0
 32 33  1  0  0  0  0
 33 34  1  0  0  0  0
 34 35  1  0  0  0  0
 34 36  1  0  0  0  0
 36 37  1  0  0  0  0
 37 38  1  0  0  0  0
 38 39  1  0  0  0  0
 39 40  1  0  0  0  0
 40 41  1  0  0  0  0
 36 41  1  0  0  0  0
M  END
> <IC50(uM)>
1.0

> <Outcome>
1.0

> <BindingDB ID>
1020499

> <BindingDB MonomerID>
490447

> <BindingDB Ligand Name>
2-[(1S)-1-cyclohexylethoxy]-5-fluoro-N-[2-methoxy-5-(trifluoromethyl)phenyl]-4-(3-oxo-5,6,7,8-tetrahydro[1,2,4]triazolo[4,3-a]pyridin-2(3H)-yl)benzamide::US10968216, Example 115

> <Curation/DataSource>
US Patent

> <Article DOI>
?

> <PMID>
?

> <Patent Number>
US10968216

> <Authors>
Gradl, SN; Nguyen, D; Eis, K; Gunther, J; Stellfeld, T; Janzer, A; Christian, S; Mueller, T; Sheikh, SE; Zhou, HJ; Zhao, C; Sykes, DB; Ferrara, SJ; Liu, K; Herbert, SA; Merz, C; Niehues, M; Nising, CF; Schafer, M; Zimmermann, K; Knablein, J; Thede, K; Faupel, T

> <Link to Ligand in BindingDB>
http://www.bindingdb.org/bind/chemsearch/marvin/MolStructure.jsp?monomerid=490447

> <Link to Ligand-Target Pair in BindingDB>
http://www.bindingdb.org/jsp/dbsearch/PrimarySearch_ki.jsp?energyterm=kJ/mole&tag=r21&monomerid=490447&enzyme=Dihydroorotate+dehydrogenase&column=ki&startPg=0&Increment=50&submit=Search

> <PubChem CID>
142335891

> <PubChem SID>
447117174

$$$$

  Mrv2115 07222212352D          

 22 23  0  0  0  0            999 V2000
    2.1434   -1.2375    0.0000 O   0  0  0  0  0  0  0  0  0  0  0  0
    1.4289   -1.6500    0.0000 C   0  0  0  0  0  0  0  0  0  0  0  0
    0.7145   -1.2375    0.0000 O   0  0  0  0  0  0  0  0  0  0  0  0
    1.4289   -2.4750    0.0000 C   0  0  0  0  0  0  0  0  0  0  0  0
    2.1434   -2.8875    0.0000 C   0  0  0  0  0  0  0  0  0  0  0  0
    2.1434   -3.7125    0.0000 C   0  0  0  0  0  0  0  0  0  0  0  0
    1.4289   -4.1250    0.0000 C   0  0  0  0  0  0  0  0  0  0  0  0
    0.7145   -3.7125    0.0000 C   0  0  0  0  0  0  0  0  0  0  0  0
    0.0000   -4.1250    0.0000 C   0  0  0  0  0  0  0  0  0  0  0  0
    0.0000   -4.9500    0.0000 C   0  0  0  0  0  0  0  0  0  0  0  0
   -0.7145   -5.3625    0.0000 C   0  0  0  0  0  0  0  0  0  0  0  0
   -0.7145   -6.1875    0.0000 C   0  0  0  0  0  0  0  0  0  0  0  0
   -0.0000   -6.6000    0.0000 C   0  0  0  0  0  0  0  0  0  0  0  0
   -0.0000   -7.4250    0.0000 O   0  0  0  0  0  0  0  0  0  0  0  0
    0.7145   -6.1875    0.0000 O   0  0  0  0  0  0  0  0  0  0  0  0
   -1.4289   -6.6000    0.0000 N   0  0  0  0  0  0  0  0  0  0  0  0
   -2.1434   -6.1875    0.0000 C   0  0  0  0  0  0  0  0  0  0  0  0
   -2.8579   -6.6000    0.0000 O   0  0  0  0  0  0  0  0  0  0  0  0
   -2.1434   -5.3625    0.0000 N   0  0  0  0  0  0  0  0  0  0  0  0
   -1.4289   -4.9500    0.0000 C   0  0  0  0  0  0  0  0  0  0  0  0
   -1.4289   -4.1250    0.0000 O   0  0  0  0  0  0  0  0  0  0  0  0
    0.7145   -2.8875    0.0000 C   0  0  0  0  0  0  0  0  0  0  0  0
  1  2  2  0  0  0  0
  2  3  1  0  0  0  0
  2  4  1  0  0  0  0
  4  5  4  0  0  0  0
  5  6  4  0  0  0  0
  6  7  4  0  0  0  0
  7  8  4  0  0  0  0
  8  9  1  0  0  0  0
  9 10  1  0  0  0  0
 10 11  1  0  0  0  0
 11 12  4  0  0  0  0
 12 13  1  0  0  0  0
 13 14  2  0  0  0  0
 13 15  1  0  0  0  0
 12 16  4  0  0  0  0
 16 17  4  0  0  0  0
 17 18  2  0  0  0  0
 17 19  4  0  0  0  0
 19 20  4  0  0  0  0
 11 20  4  0  0  0  0
 20 21  2  0  0  0  0
  8 22  4  0  0  0  0
  4 22  4  0  0  0  0
M  STY  2   1 DAT   2 DAT
M  SAL   1  1  16
M  SDT   1 MRV_IMPLICIT_H                                        
M  SDD   1     0.6482   -0.4125    DR    ALL  0       0  
M  SED   1 IMPL_H1
M  SAL   2  1  19
M  SDT   2 MRV_IMPLICIT_H                                        
M  SDD   2     0.5304   -0.4125    DR    ALL  0       0  
M  SED   2 IMPL_H1
M  END
> <IC50(uM)>
2.4

> <Outcome>
0.0

> <BindingDB ID>
50555328

> <BindingDB MonomerID>
50211923

> <BindingDB Ligand Name>
CHEMBL3907470

> <Curation/DataSource>
ChEMBL

> <Article DOI>
10.1016/j.bmc.2017.01.009

> <PMID>
28118956

> <Patent Number>
?

> <Authors>
Inaoka, DK; Iida, M; Hashimoto, S; Tabuchi, T; Kuranaga, T; Balogun, EO; Honma, T; Tanaka, A; Harada, S; Nara, T; Kita, K; Inoue, M

> <Link to Ligand in BindingDB>
http://www.bindingdb.org/bind/chemsearch/marvin/MolStructure.jsp?monomerid=50211923

> <Link to Ligand-Target Pair in BindingDB>
http://www.bindingdb.org/jsp/dbsearch/PrimarySearch_ki.jsp?energyterm=kJ/mole&tag=r21&monomerid=50211923&enzyme=Dihydroorotate+dehydrogenase&column=ki&startPg=0&Increment=50&submit=Search

> <PubChem CID>
134132509

> <PubChem SID>
104088001

$$$$

  Mrv2115 07222212352D          

 33 35  0  0  0  0            999 V2000
    2.1434   -3.7125    0.0000 C   0  0  0  0  0  0  0  0  0  0  0  0
    2.8579   -4.1250    0.0000 C   0  0  0  0  0  0  0  0  0  0  0  0
    2.8579   -4.9500    0.0000 C   0  0  0  0  0  0  0  0  0  0  0  0
    3.5724   -3.7125    0.0000 C   0  0  0  0  0  0  0  0  0  0  0  0
    4.2868   -4.1250    0.0000 C   0  0  0  0  0  0  0  0  0  0  0  0
    4.2868   -4.9500    0.0000 C   0  0  0  0  0  0  0  0  0  0  0  0
    5.0013   -3.7125    0.0000 O   0  0  0  0  0  0  0  0  0  0  0  0
    5.0013   -2.8875    0.0000 C   0  0  0  0  0  0  0  0  0  0  0  0
    4.2868   -2.4750    0.0000 C   0  0  0  0  0  0  0  0  0  0  0  0
    4.2868   -1.6500    0.0000 C   0  0  0  0  0  0  0  0  0  0  0  0
    3.5724   -1.2375    0.0000 N   0  0  0  0  0  0  0  0  0  0  0  0
    2.8187   -1.5731    0.0000 N   0  0  0  0  0  0  0  0  0  0  0  0
    2.2666   -0.9600    0.0000 C   0  0  0  0  0  0  0  0  0  0  0  0
    1.4462   -1.0462    0.0000 C   0  0  0  0  0  0  0  0  0  0  0  0
    0.9612   -0.3788    0.0000 C   0  0  0  0  0  0  0  0  0  0  0  0
    1.1106   -1.7999    0.0000 C   0  0  0  0  0  0  0  0  0  0  0  0
    2.6791   -0.2455    0.0000 N   0  0  0  0  0  0  0  0  0  0  0  0
    2.3436    0.5082    0.0000 C   0  0  0  0  0  0  0  0  0  0  0  0
    3.4861   -0.4170    0.0000 C   0  0  0  0  0  0  0  0  0  0  0  0
    4.0992    0.1350    0.0000 O   0  0  0  0  0  0  0  0  0  0  0  0
    5.0013   -1.2375    0.0000 C   0  0  0  0  0  0  0  0  0  0  0  0
    5.0013   -0.4125    0.0000 F   0  0  0  0  0  0  0  0  0  0  0  0
    5.7158   -1.6500    0.0000 C   0  0  0  0  0  0  0  0  0  0  0  0
    5.7158   -2.4750    0.0000 C   0  0  0  0  0  0  0  0  0  0  0  0
    6.4302   -2.8875    0.0000 C   0  0  0  0  0  0  0  0  0  0  0  0
    6.4302   -3.7125    0.0000 O   0  0  0  0  0  0  0  0  0  0  0  0
    7.1447   -2.4750    0.0000 N   0  0  0  0  0  0  0  0  0  0  0  0
    7.8592   -2.8875    0.0000 C   0  0  0  0  0  0  0  0  0  0  0  0
    8.5737   -2.4750    0.0000 C   0  0  0  0  0  0  0  0  0  0  0  0
    9.2881   -2.8875    0.0000 C   0  0  0  0  0  0  0  0  0  0  0  0
    9.2881   -3.7125    0.0000 N   0  0  0  0  0  0  0  0  0  0  0  0
    8.5737   -4.1250    0.0000 C   0  0  0  0  0  0  0  0  0  0  0  0
    7.8592   -3.7125    0.0000 N   0  0  0  0  0  0  0  0  0  0  0  0
  1  2  1  0  0  0  0
  2  3  1  0  0  0  0
  2  4  1  0  0  0  0
  4  5  1  0  0  0  0
  5  6  1  0  0  0  0
  5  7  1  0  0  0  0
  7  8  1  0  0  0  0
  8  9  4  0  0  0  0
  9 10  4  0  0  0  0
 10 11  1  0  0  0  0
 11 12  4  0  0  0  0
 12 13  4  0  0  0  0
 13 14  1  0  0  0  0
 14 15  1  0  0  0  0
 14 16  1  0  0  0  0
 13 17  4  0  0  0  0
 17 18  1  0  0  0  0
 17 19  4  0  0  0  0
 11 19  4  0  0  0  0
 19 20  2  0  0  0  0
 10 21  4  0  0  0  0
 21 22  1  0  0  0  0
 21 23  4  0  0  0  0
 23 24  4  0  0  0  0
  8 24  4  0  0  0  0
 24 25  1  0  0  0  0
 25 26  2  0  0  0  0
 25 27  1  0  0  0  0
 27 28  1  0  0  0  0
 28 29  4  0  0  0  0
 29 30  4  0  0  0  0
 30 31  4  0  0  0  0
 31 32  4  0  0  0  0
 32 33  4  0  0  0  0
 28 33  4  0  0  0  0
M  END
> <IC50(uM)>
9.25

> <Outcome>
0.0

> <BindingDB ID>
1098769; 972615; 972616; 1098770

> <BindingDB MonomerID>
470502

> <BindingDB Ligand Name>
5-fluoro-4-[4-methyl-5-oxo-3-(propan-2-yl)-4,5-dihydro-1H-1,2,4-triazol-1-yl]-2-{[(2S)-4-methyl-pentan-2-yl]oxy}-N-(pyrimidin-4-yl)benzamide::US10815215, Example 154::US11130745, Example 154; 5-fluoro-4-[4-methyl-5-oxo-3-(propan-2-yl)-4,5-dihydro-1H-1,2,4-triazol-1-yl]-2-{[(2S)-4-methyl-pentan-2-yl]oxy}-N-(pyrimidin-4-yl)benzamide::US10815215, Example 154

> <Curation/DataSource>
US Patent

> <Article DOI>
?

> <PMID>
?

> <Patent Number>
US11130745; US10815215

> <Authors>
Gradl, SN; Nguyen, D; Eis, K; Gunther, J; Stellfeld, T; Janzer, A; Christian, S; Muller, T; Sheikh, SE; Sykes, DB; Ferrara, SJ; Krober, M; Merz, C; Niehues, M; Schafer, M; Zimmermann, K; Nising, CF; Gradl, SN; Nguyen, D; Eis, K; Gunther, J; Stellfeld, T; Janzer, A; Christian, S; Muller, T; Sheikh, SE; Zhou, HJ; Zhao, C; Sykes, DB; Ferrara, SJ; Liu, K; Krober, M; Merz, C; Niehues, M; Schafer, M; Zimmermann, K; Nising, CF

> <Link to Ligand in BindingDB>
http://www.bindingdb.org/bind/chemsearch/marvin/MolStructure.jsp?monomerid=470502

> <Link to Ligand-Target Pair in BindingDB>
http://www.bindingdb.org/jsp/dbsearch/PrimarySearch_ki.jsp?energyterm=kJ/mole&tag=r21&monomerid=470502&enzyme=Dihydroorotate+dehydrogenase&column=ki&startPg=0&Increment=50&submit=Search

> <PubChem CID>
134469947

> <PubChem SID>
441609679

$$$$

  Mrv2115 07222212352D          

 27 28  0  0  0  0            999 V2000
   -2.1434   -0.4125    0.0000 C   0  0  0  0  0  0  0  0  0  0  0  0
   -2.1434   -1.2375    0.0000 C   0  0  0  0  0  0  0  0  0  0  0  0
   -2.8579   -1.6500    0.0000 O   0  0  0  0  0  0  0  0  0  0  0  0
   -2.8579   -2.4750    0.0000 C   0  0  0  0  0  0  0  0  0  0  0  0
   -2.1434   -2.8875    0.0000 C   0  0  0  0  0  0  0  0  0  0  0  0
   -2.1434   -3.7125    0.0000 C   0  0  0  0  0  0  0  0  0  0  0  0
   -2.8579   -4.1250    0.0000 C   0  0  0  0  0  0  0  0  0  0  0  0
   -3.5724   -3.7125    0.0000 C   0  0  0  0  0  0  0  0  0  0  0  0
   -4.2868   -4.1250    0.0000 C   0  0  0  0  0  0  0  0  0  0  0  0
   -4.2868   -4.9500    0.0000 C   0  0  0  0  0  0  0  0  0  0  0  0
   -5.0013   -5.3625    0.0000 C   0  0  0  0  0  0  0  0  0  0  0  0
   -5.7158   -4.9500    0.0000 C   0  0  0  0  0  0  0  0  0  0  0  0
   -6.4302   -5.3625    0.0000 N   0  0  0  0  0  0  0  0  0  0  0  0
   -6.4302   -6.1875    0.0000 C   0  0  0  0  0  0  0  0  0  0  0  0
   -5.7158   -6.6000    0.0000 C   0  0  0  0  0  0  0  0  0  0  0  0
   -5.7158   -7.4250    0.0000 N   0  0  0  0  0  0  0  0  0  0  0  0
   -6.4302   -7.8375    0.0000 C   0  0  0  0  0  0  0  0  0  0  0  0
   -7.1447   -7.4250    0.0000 C   0  0  0  0  0  0  0  0  0  0  0  0
   -7.1447   -6.6000    0.0000 C   0  0  0  0  0  0  0  0  0  0  0  0
   -7.8592   -6.1875    0.0000 C   0  0  0  0  0  0  0  0  0  0  0  0
   -7.8592   -5.3625    0.0000 O   0  0  0  0  0  0  0  0  0  0  0  0
   -8.5737   -6.6000    0.0000 O   0  5  0  0  0  0  0  0  0  0  0  0
   -5.7158   -4.1250    0.0000 C   0  0  0  0  0  0  0  0  0  0  0  0
   -6.4302   -3.7125    0.0000 F   0  0  0  0  0  0  0  0  0  0  0  0
   -5.0013   -3.7125    0.0000 C   0  0  0  0  0  0  0  0  0  0  0  0
   -3.5724   -2.8875    0.0000 C   0  0  0  0  0  0  0  0  0  0  0  0
   -9.2881   -7.0125    0.0000 Li  0  3  0  0  0  0  0  0  0  0  0  0
  1  2  1  0  0  0  0
  2  3  1  0  0  0  0
  3  4  1  0  0  0  0
  4  5  4  0  0  0  0
  5  6  4  0  0  0  0
  6  7  4  0  0  0  0
  7  8  4  0  0  0  0
  8  9  1  0  0  0  0
  9 10  4  0  0  0  0
 10 11  4  0  0  0  0
 11 12  4  0  0  0  0
 12 13  1  0  0  0  0
 13 14  1  0  0  0  0
 14 15  4  0  0  0  0
 15 16  4  0  0  0  0
 16 17  4  0  0  0  0
 17 18  4  0  0  0  0
 18 19  4  0  0  0  0
 14 19  4  0  0  0  0
 19 20  1  0  0  0  0
 20 21  2  0  0  0  0
 20 22  1  0  0  0  0
 12 23  4  0  0  0  0
 23 24  1  0  0  0  0
 23 25  4  0  0  0  0
  9 25  4  0  0  0  0
  8 26  4  0  0  0  0
  4 26  4  0  0  0  0
M  CHG  2  22  -1  27   1
M  END
> <IC50(uM)>
0.019

> <Outcome>
1.0

> <BindingDB ID>
246906

> <BindingDB MonomerID>
119813

> <BindingDB Ligand Name>
US8691852, 21

> <Curation/DataSource>
US Patent

> <Article DOI>
?

> <PMID>
?

> <Patent Number>
US8691852

> <Authors>
Castro Palomino Laria, JC; Erra Sola, M; Lozoya Toribio, ME; Navarro Romero, E

> <Link to Ligand in BindingDB>
http://www.bindingdb.org/bind/chemsearch/marvin/MolStructure.jsp?monomerid=119813

> <Link to Ligand-Target Pair in BindingDB>
http://www.bindingdb.org/jsp/dbsearch/PrimarySearch_ki.jsp?energyterm=kJ/mole&tag=r21&monomerid=119813&enzyme=Dihydroorotate+dehydrogenase&column=ki&startPg=0&Increment=50&submit=Search

> <PubChem CID>
24987183

> <PubChem SID>
220230607

$$$$

  Mrv2115 07222212352D          

 28 32  0  0  0  0            999 V2000
   -4.9882    2.4939    0.0000 C   0  0  0  0  0  0  0  0  0  0  0  0
   -4.6527    3.2476    0.0000 C   0  0  0  0  0  0  0  0  0  0  0  0
   -5.1376    3.9151    0.0000 C   0  0  0  0  0  0  0  0  0  0  0  0
   -4.8020    4.6687    0.0000 C   0  0  0  0  0  0  0  0  0  0  0  0
   -3.9816    4.7550    0.0000 C   0  0  0  0  0  0  0  0  0  0  0  0
   -3.4966    4.0875    0.0000 C   0  0  0  0  0  0  0  0  0  0  0  0
   -3.8322    3.3339    0.0000 C   0  0  0  0  0  0  0  0  0  0  0  0
   -3.3473    2.6664    0.0000 N   0  0  0  0  0  0  0  0  0  0  0  0
   -3.6022    1.8818    0.0000 N   0  0  0  0  0  0  0  0  0  0  0  0
   -2.9348    1.3969    0.0000 C   0  0  0  0  0  0  0  0  0  0  0  0
   -2.2673    1.8818    0.0000 C   0  0  0  0  0  0  0  0  0  0  0  0
   -2.5223    2.6664    0.0000 C   0  0  0  0  0  0  0  0  0  0  0  0
   -1.9702    3.2795    0.0000 C   0  0  0  0  0  0  0  0  0  0  0  0
   -1.1633    3.1080    0.0000 C   0  0  0  0  0  0  0  0  0  0  0  0
   -0.9083    2.3234    0.0000 C   0  0  0  0  0  0  0  0  0  0  0  0
   -1.4604    1.7103    0.0000 C   0  0  0  0  0  0  0  0  0  0  0  0
   -1.2054    0.9256    0.0000 N   0  0  0  0  0  0  0  0  0  0  0  0
   -0.3984    0.7541    0.0000 C   0  0  0  0  0  0  0  0  0  0  0  0
    0.1536    1.3672    0.0000 O   0  0  0  0  0  0  0  0  0  0  0  0
   -0.1435   -0.0305    0.0000 C   0  0  0  0  0  0  0  0  0  0  0  0
   -0.6284   -0.6979    0.0000 O   0  0  0  0  0  0  0  0  0  0  0  0
   -0.1435   -1.3654    0.0000 N   0  0  0  0  0  0  0  0  0  0  0  0
    0.6411   -1.1104    0.0000 C   0  0  0  0  0  0  0  0  0  0  0  0
    0.6411   -0.2854    0.0000 C   0  0  0  0  0  0  0  0  0  0  0  0
    1.3556    0.1271    0.0000 C   0  0  0  0  0  0  0  0  0  0  0  0
    2.0701   -0.2854    0.0000 C   0  0  0  0  0  0  0  0  0  0  0  0
    2.0701   -1.1104    0.0000 C   0  0  0  0  0  0  0  0  0  0  0  0
    1.3556   -1.5229    0.0000 C   0  0  0  0  0  0  0  0  0  0  0  0
  1  2  1  0  0  0  0
  2  3  4  0  0  0  0
  3  4  4  0  0  0  0
  4  5  4  0  0  0  0
  5  6  4  0  0  0  0
  6  7  4  0  0  0  0
  2  7  4  0  0  0  0
  7  8  1  0  0  0  0
  8  9  4  0  0  0  0
  9 10  4  0  0  0  0
 10 11  4  0  0  0  0
 11 12  4  0  0  0  0
  8 12  4  0  0  0  0
 12 13  1  0  0  0  0
 13 14  1  0  0  0  0
 14 15  1  0  0  0  0
 15 16  1  0  0  0  0
 11 16  1  0  0  0  0
 16 17  1  0  0  0  0
 17 18  1  0  0  0  0
 18 19  2  0  0  0  0
 18 20  1  0  0  0  0
 20 21  4  0  0  0  0
 21 22  4  0  0  0  0
 22 23  4  0  0  0  0
 23 24  4  0  0  0  0
 20 24  4  0  0  0  0
 24 25  1  0  0  0  0
 25 26  1  0  0  0  0
 26 27  1  0  0  0  0
 27 28  1  0  0  0  0
 23 28  1  0  0  0  0
M  END
> <IC50(uM)>
0.008

> <Outcome>
1.0

> <BindingDB ID>
51334961; 993084

> <BindingDB MonomerID>
477586

> <BindingDB Ligand Name>
N-[(4R)-1-(2-methylphenyl)-4,5,6,7-tetrahydro-1H-indazol-4-yl]-4,5,6,7-tetrahydro-2,1-benzoxazole-3-carboxamide::US10889564, Example 16

> <Curation/DataSource>
ChEMBL; US Patent

> <Article DOI>
10.1021/acs.jmedchem.9b01658; ?

> <PMID>
32212728; ?

> <Patent Number>
?; US10889564

> <Authors>
Popova, G; Ladds, MJGW; Johansson, L; Saleh, A; Larsson, J; Sandberg, L; Sahlberg, SH; Qian, W; Gullberg, H; Garg, N; Gustavsson, AL; Haraldsson, M; Lane, D; Yngve, U; Lain, S; Lain, S; Drummond, C; Leeuwen, IV; Haraldsson, M; Johansson, L; Sandberg, L; Yngve, U

> <Link to Ligand in BindingDB>
http://www.bindingdb.org/bind/chemsearch/marvin/MolStructure.jsp?monomerid=477586

> <Link to Ligand-Target Pair in BindingDB>
http://www.bindingdb.org/jsp/dbsearch/PrimarySearch_ki.jsp?energyterm=kJ/mole&tag=r21&monomerid=477586&enzyme=Dihydroorotate+dehydrogenase&column=ki&startPg=0&Increment=50&submit=Search

> <PubChem CID>
129104726

> <PubChem SID>
442137203

$$$$

  Mrv2115 07222212352D          

 24 27  0  0  0  0            999 V2000
    3.9934    2.4750    0.0000 N   0  0  0  0  0  0  0  0  0  0  0  0
    3.2789    2.0625    0.0000 C   0  0  0  0  0  0  0  0  0  0  0  0
    2.5645    2.4750    0.0000 O   0  0  0  0  0  0  0  0  0  0  0  0
    3.2789    1.2375    0.0000 C   0  0  0  0  0  0  0  0  0  0  0  0
    3.9934    0.8250    0.0000 C   0  0  0  0  0  0  0  0  0  0  0  0
    3.9934    0.0000    0.0000 C   0  0  0  0  0  0  0  0  0  0  0  0
    3.2789   -0.4125    0.0000 C   0  0  0  0  0  0  0  0  0  0  0  0
    2.5645    0.0000    0.0000 C   0  0  0  0  0  0  0  0  0  0  0  0
    1.7798   -0.2549    0.0000 N   0  0  0  0  0  0  0  0  0  0  0  0
    1.2949    0.4125    0.0000 C   0  0  0  0  0  0  0  0  0  0  0  0
    0.4699    0.4125    0.0000 C   0  0  0  0  0  0  0  0  0  0  0  0
    0.0574   -0.3020    0.0000 C   0  0  0  0  0  0  0  0  0  0  0  0
   -0.7676   -0.3020    0.0000 C   0  0  0  0  0  0  0  0  0  0  0  0
   -1.1801    0.4125    0.0000 C   0  0  0  0  0  0  0  0  0  0  0  0
   -2.0051    0.4125    0.0000 C   0  0  0  0  0  0  0  0  0  0  0  0
   -2.4176   -0.3020    0.0000 C   0  0  0  0  0  0  0  0  0  0  0  0
   -3.2426   -0.3020    0.0000 C   0  0  0  0  0  0  0  0  0  0  0  0
   -3.6551    0.4125    0.0000 C   0  0  0  0  0  0  0  0  0  0  0  0
   -3.2426    1.1270    0.0000 N   0  0  0  0  0  0  0  0  0  0  0  0
   -2.4176    1.1270    0.0000 C   0  0  0  0  0  0  0  0  0  0  0  0
   -0.7676    1.1270    0.0000 C   0  0  0  0  0  0  0  0  0  0  0  0
    0.0574    1.1270    0.0000 C   0  0  0  0  0  0  0  0  0  0  0  0
    1.7798    1.0799    0.0000 N   0  0  0  0  0  0  0  0  0  0  0  0
    2.5645    0.8250    0.0000 C   0  0  0  0  0  0  0  0  0  0  0  0
  1  2  1  0  0  0  0
  2  3  2  0  0  0  0
  2  4  1  0  0  0  0
  4  5  4  0  0  0  0
  5  6  4  0  0  0  0
  6  7  4  0  0  0  0
  7  8  4  0  0  0  0
  8  9  4  0  0  0  0
  9 10  4  0  0  0  0
 10 11  1  0  0  0  0
 11 12  4  0  0  0  0
 12 13  4  0  0  0  0
 13 14  4  0  0  0  0
 14 15  1  0  0  0  0
 15 16  4  0  0  0  0
 16 17  4  0  0  0  0
 17 18  4  0  0  0  0
 18 19  4  0  0  0  0
 19 20  4  0  0  0  0
 15 20  4  0  0  0  0
 14 21  4  0  0  0  0
 21 22  4  0  0  0  0
 11 22  4  0  0  0  0
 10 23  4  0  0  0  0
 23 24  4  0  0  0  0
  4 24  4  0  0  0  0
  8 24  4  0  0  0  0
M  STY  1   1 DAT
M  SAL   1  1   9
M  SDT   1 MRV_IMPLICIT_H                                        
M  SDD   1     0.5304   -0.4125    DR    ALL  0       0  
M  SED   1 IMPL_H1
M  END
> <IC50(uM)>
19.0

> <Outcome>
0.0

> <BindingDB ID>
50358213

> <BindingDB MonomerID>
50300015

> <BindingDB Ligand Name>
2-(4-(Pyridin-3-yl)phenyl)-1H-benzo[d]imidazole-4-carboxamide::2-(4-pyridine-3-ylphenyl)-1H-benzimidazole-4-carboxamide::CHEMBL571285

> <Curation/DataSource>
ChEMBL

> <Article DOI>
10.1016/j.bmc.2015.05.051

> <PMID>
26088338

> <Patent Number>
?

> <Authors>
Abdullah, I; Chee, CF; Lee, YK; Thunuguntla, SS; Satish Reddy, K; Nellore, K; Antony, T; Verma, J; Mun, KW; Othman, S; Subramanya, H; Rahman, NA

> <Link to Ligand in BindingDB>
http://www.bindingdb.org/bind/chemsearch/marvin/MolStructure.jsp?monomerid=50300015

> <Link to Ligand-Target Pair in BindingDB>
http://www.bindingdb.org/jsp/dbsearch/PrimarySearch_ki.jsp?energyterm=kJ/mole&tag=r21&monomerid=50300015&enzyme=Dihydroorotate+dehydrogenase&column=ki&startPg=0&Increment=50&submit=Search

> <PubChem CID>
44541920

> <PubChem SID>
104154376

$$$$

  Mrv2115 07222212352D          

 35 38  0  0  0  0            999 V2000
   -3.8837    1.4455    0.0000 C   0  0  0  0  0  0  0  0  0  0  0  0
   -4.2962    0.7310    0.0000 C   0  0  0  0  0  0  0  0  0  0  0  0
   -5.1212    0.7310    0.0000 C   0  0  0  0  0  0  0  0  0  0  0  0
   -5.5337    0.0165    0.0000 C   0  0  0  0  0  0  0  0  0  0  0  0
   -5.1212   -0.6979    0.0000 C   0  0  0  0  0  0  0  0  0  0  0  0
   -4.2962   -0.6979    0.0000 C   0  0  0  0  0  0  0  0  0  0  0  0
   -3.8837   -1.4124    0.0000 F   0  0  0  0  0  0  0  0  0  0  0  0
   -3.8837    0.0165    0.0000 C   0  0  0  0  0  0  0  0  0  0  0  0
   -3.0587    0.0165    0.0000 N   0  0  0  0  0  0  0  0  0  0  0  0
   -2.6462   -0.6979    0.0000 C   0  0  0  0  0  0  0  0  0  0  0  0
   -3.0587   -1.4124    0.0000 O   0  0  0  0  0  0  0  0  0  0  0  0
   -1.8212   -0.6979    0.0000 C   0  0  0  0  0  0  0  0  0  0  0  0
   -1.4087    0.0165    0.0000 C   0  0  0  0  0  0  0  0  0  0  0  0
   -0.5837    0.0165    0.0000 C   0  0  0  0  0  0  0  0  0  0  0  0
   -0.1712    0.7310    0.0000 F   0  0  0  0  0  0  0  0  0  0  0  0
   -0.1712   -0.6979    0.0000 C   0  0  0  0  0  0  0  0  0  0  0  0
    0.6538   -0.6979    0.0000 N   0  0  0  0  0  0  0  0  0  0  0  0
    1.1387   -0.0305    0.0000 N   0  0  0  0  0  0  0  0  0  0  0  0
    1.9233   -0.2854    0.0000 C   0  0  0  0  0  0  0  0  0  0  0  0
    2.6378    0.1271    0.0000 C   0  0  0  0  0  0  0  0  0  0  0  0
    3.3523   -0.2854    0.0000 C   0  0  0  0  0  0  0  0  0  0  0  0
    3.3523   -1.1104    0.0000 C   0  0  0  0  0  0  0  0  0  0  0  0
    2.6378   -1.5229    0.0000 C   0  0  0  0  0  0  0  0  0  0  0  0
    1.9233   -1.1104    0.0000 N   0  0  0  0  0  0  0  0  0  0  0  0
    1.1387   -1.3654    0.0000 C   0  0  0  0  0  0  0  0  0  0  0  0
    0.8838   -2.1500    0.0000 O   0  0  0  0  0  0  0  0  0  0  0  0
   -0.5837   -1.4124    0.0000 C   0  0  0  0  0  0  0  0  0  0  0  0
   -1.4087   -1.4124    0.0000 C   0  0  0  0  0  0  0  0  0  0  0  0
   -1.8212   -2.1269    0.0000 O   0  0  0  0  0  0  0  0  0  0  0  0
   -1.4087   -2.8414    0.0000 C   0  0  0  0  0  0  0  0  0  0  0  0
   -0.5837   -2.8414    0.0000 C   0  0  0  0  0  0  0  0  0  0  0  0
   -1.8212   -3.5558    0.0000 C   0  0  0  0  0  0  0  0  0  0  0  0
   -2.5357   -3.1433    0.0000 F   0  0  0  0  0  0  0  0  0  0  0  0
   -1.1067   -3.9683    0.0000 F   0  0  0  0  0  0  0  0  0  0  0  0
   -2.2337   -4.2703    0.0000 F   0  0  0  0  0  0  0  0  0  0  0  0
  1  2  1  0  0  0  0
  2  3  4  0  0  0  0
  3  4  4  0  0  0  0
  4  5  4  0  0  0  0
  5  6  4  0  0  0  0
  6  7  1  0  0  0  0
  6  8  4  0  0  0  0
  2  8  4  0  0  0  0
  8  9  1  0  0  0  0
  9 10  1  0  0  0  0
 10 11  2  0  0  0  0
 10 12  1  0  0  0  0
 12 13  4  0  0  0  0
 13 14  4  0  0  0  0
 14 15  1  0  0  0  0
 14 16  4  0  0  0  0
 16 17  1  0  0  0  0
 17 18  4  0  0  0  0
 18 19  4  0  0  0  0
 19 20  4  0  0  0  0
 20 21  4  0  0  0  0
 21 22  4  0  0  0  0
 22 23  4  0  0  0  0
 23 24  4  0  0  0  0
 19 24  4  0  0  0  0
 24 25  4  0  0  0  0
 17 25  4  0  0  0  0
 25 26  2  0  0  0  0
 16 27  4  0  0  0  0
 27 28  4  0  0  0  0
 12 28  4  0  0  0  0
 28 29  1  0  0  0  0
 29 30  1  0  0  0  0
 30 31  1  0  0  0  0
 30 32  1  0  0  0  0
 32 33  1  0  0  0  0
 32 34  1  0  0  0  0
 32 35  1  0  0  0  0
M  END
> <IC50(uM)>
0.0195

> <Outcome>
1.0

> <BindingDB ID>
1020606

> <BindingDB MonomerID>
490545

> <BindingDB Ligand Name>
5-fluoro-N-(2-fluoro-6-methylphenyl)-4-(3-oxo[1,2,4]triazolo[4,3-a]pyridin-2(3H)-yl)-2-{[(2S)-1,1,1-trifluoropropan-2-yl]oxy}benzamide::US10968216, Example 213

> <Curation/DataSource>
US Patent

> <Article DOI>
?

> <PMID>
?

> <Patent Number>
US10968216

> <Authors>
Gradl, SN; Nguyen, D; Eis, K; Gunther, J; Stellfeld, T; Janzer, A; Christian, S; Mueller, T; Sheikh, SE; Zhou, HJ; Zhao, C; Sykes, DB; Ferrara, SJ; Liu, K; Herbert, SA; Merz, C; Niehues, M; Nising, CF; Schafer, M; Zimmermann, K; Knablein, J; Thede, K; Faupel, T

> <Link to Ligand in BindingDB>
http://www.bindingdb.org/bind/chemsearch/marvin/MolStructure.jsp?monomerid=490545

> <Link to Ligand-Target Pair in BindingDB>
http://www.bindingdb.org/jsp/dbsearch/PrimarySearch_ki.jsp?energyterm=kJ/mole&tag=r21&monomerid=490545&enzyme=Dihydroorotate+dehydrogenase&column=ki&startPg=0&Increment=50&submit=Search

> <PubChem CID>
134473991

> <PubChem SID>
447117271

$$$$

  Mrv2115 07222212352D          

 31 33  0  0  0  0            999 V2000
   -1.4289   -1.6500    0.0000 C   0  0  0  0  0  0  0  0  0  0  0  0
   -1.4289   -2.4750    0.0000 C   0  0  0  0  0  0  0  0  0  0  0  0
   -2.1434   -2.8875    0.0000 S   0  0  0  0  0  0  0  0  0  0  0  0
   -2.1434   -3.7125    0.0000 C   0  0  0  0  0  0  0  0  0  0  0  0
   -1.4760   -4.1974    0.0000 N   0  0  0  0  0  0  0  0  0  0  0  0
   -1.7309   -4.9820    0.0000 N   0  0  0  0  0  0  0  0  0  0  0  0
   -2.5559   -4.9820    0.0000 C   0  0  0  0  0  0  0  0  0  0  0  0
   -3.0408   -5.6495    0.0000 C   0  0  0  0  0  0  0  0  0  0  0  0
   -2.7053   -6.4032    0.0000 C   0  0  0  0  0  0  0  0  0  0  0  0
   -3.1902   -7.0706    0.0000 C   0  0  0  0  0  0  0  0  0  0  0  0
   -4.0107   -6.9844    0.0000 C   0  0  0  0  0  0  0  0  0  0  0  0
   -4.3462   -6.2307    0.0000 N   0  0  0  0  0  0  0  0  0  0  0  0
   -5.1667   -6.1445    0.0000 C   0  0  0  0  0  0  0  0  0  0  0  0
   -5.5023   -5.3908    0.0000 C   0  0  0  0  0  0  0  0  0  0  0  0
   -5.0174   -4.7233    0.0000 O   0  0  0  0  0  0  0  0  0  0  0  0
   -6.3228   -5.3045    0.0000 N   0  0  0  0  0  0  0  0  0  0  0  0
   -6.8077   -5.9720    0.0000 C   0  0  0  0  0  0  0  0  0  0  0  0
   -6.4721   -6.7257    0.0000 C   0  0  0  0  0  0  0  0  0  0  0  0
   -6.9570   -7.3931    0.0000 C   0  0  0  0  0  0  0  0  0  0  0  0
   -6.6215   -8.1468    0.0000 C   0  0  0  0  0  0  0  0  0  0  0  0
   -6.2859   -8.9004    0.0000 F   0  0  0  0  0  0  0  0  0  0  0  0
   -7.3752   -8.4823    0.0000 F   0  0  0  0  0  0  0  0  0  0  0  0
   -5.8678   -7.8112    0.0000 F   0  0  0  0  0  0  0  0  0  0  0  0
   -7.7775   -7.3069    0.0000 C   0  0  0  0  0  0  0  0  0  0  0  0
   -8.1131   -6.5532    0.0000 C   0  0  0  0  0  0  0  0  0  0  0  0
   -7.6282   -5.8857    0.0000 C   0  0  0  0  0  0  0  0  0  0  0  0
   -7.9637   -5.1321    0.0000 Cl  0  0  0  0  0  0  0  0  0  0  0  0
   -3.8613   -5.5632    0.0000 C   0  0  0  0  0  0  0  0  0  0  0  0
   -2.8109   -4.1974    0.0000 N   0  0  0  0  0  0  0  0  0  0  0  0
   -3.5955   -3.9425    0.0000 C   0  0  0  0  0  0  0  0  0  0  0  0
   -3.7670   -3.1355    0.0000 C   0  0  0  0  0  0  0  0  0  0  0  0
  1  2  1  0  0  0  0
  2  3  1  0  0  0  0
  3  4  1  0  0  0  0
  4  5  4  0  0  0  0
  5  6  4  0  0  0  0
  6  7  4  0  0  0  0
  7  8  1  0  0  0  0
  8  9  1  0  0  0  0
  9 10  1  0  0  0  0
 10 11  1  0  0  0  0
 11 12  1  0  0  0  0
 12 13  1  0  0  0  0
 13 14  1  0  0  0  0
 14 15  2  0  0  0  0
 14 16  1  0  0  0  0
 16 17  1  0  0  0  0
 17 18  4  0  0  0  0
 18 19  4  0  0  0  0
 19 20  1  0  0  0  0
 20 21  1  0  0  0  0
 20 22  1  0  0  0  0
 20 23  1  0  0  0  0
 19 24  4  0  0  0  0
 24 25  4  0  0  0  0
 25 26  4  0  0  0  0
 17 26  4  0  0  0  0
 26 27  1  0  0  0  0
 12 28  1  0  0  0  0
  8 28  1  0  0  0  0
  7 29  4  0  0  0  0
  4 29  4  0  0  0  0
 29 30  1  0  0  0  0
 30 31  1  0  0  0  0
M  END
> <IC50(uM)>
30.0

> <Outcome>
0.0

> <BindingDB ID>
404295

> <BindingDB MonomerID>
231630

> <BindingDB Ligand Name>
GSK3

> <Curation/DataSource>
Curated from the literature by BindingDB

> <Article DOI>
10.1074/jbc.M114.558353

> <PMID>
24782313

> <Patent Number>
?

> <Authors>
Ross, LS; Gamo, FJ; Lafuente-Monasterio, MJ; Singh, OM; Rowland, P; Wiegand, RC; Wirth, DF

> <Link to Ligand in BindingDB>
http://www.bindingdb.org/bind/chemsearch/marvin/MolStructure.jsp?monomerid=231630

> <Link to Ligand-Target Pair in BindingDB>
http://www.bindingdb.org/jsp/dbsearch/PrimarySearch_ki.jsp?energyterm=kJ/mole&tag=r21&monomerid=231630&enzyme=Dihydroorotate+dehydrogenase&column=ki&startPg=0&Increment=50&submit=Search

> <PubChem CID>
3232001

> <PubChem SID>
336950879

$$$$

  Mrv2115 07222212352D          

 21 23  0  0  0  0            999 V2000
    4.0668    2.3479    0.0000 C   0  0  0  0  0  0  0  0  0  0  0  0
    3.3523    1.9354    0.0000 C   0  0  0  0  0  0  0  0  0  0  0  0
    3.3523    1.1104    0.0000 C   0  0  0  0  0  0  0  0  0  0  0  0
    2.6378    0.6979    0.0000 C   0  0  0  0  0  0  0  0  0  0  0  0
    2.6378   -0.1271    0.0000 O   0  0  0  0  0  0  0  0  0  0  0  0
    1.9233    1.1104    0.0000 N   0  0  0  0  0  0  0  0  0  0  0  0
    1.1387    0.8555    0.0000 N   0  0  0  0  0  0  0  0  0  0  0  0
    0.6538    1.5229    0.0000 C   0  0  0  0  0  0  0  0  0  0  0  0
   -0.1712    1.5229    0.0000 S   0  0  0  0  0  0  0  0  0  0  0  0
   -0.5837    0.8085    0.0000 C   0  0  0  0  0  0  0  0  0  0  0  0
   -1.4087    0.8085    0.0000 C   0  0  0  0  0  0  0  0  0  0  0  0
   -1.8212    0.0940    0.0000 C   0  0  0  0  0  0  0  0  0  0  0  0
   -1.4087   -0.6205    0.0000 Cl  0  0  0  0  0  0  0  0  0  0  0  0
   -2.6462    0.0940    0.0000 C   0  0  0  0  0  0  0  0  0  0  0  0
   -3.0587    0.8085    0.0000 C   0  0  0  0  0  0  0  0  0  0  0  0
   -2.6462    1.5229    0.0000 C   0  0  0  0  0  0  0  0  0  0  0  0
   -1.8212    1.5229    0.0000 C   0  0  0  0  0  0  0  0  0  0  0  0
   -1.4087    2.2374    0.0000 Cl  0  0  0  0  0  0  0  0  0  0  0  0
    1.1387    2.1904    0.0000 N   0  0  0  0  0  0  0  0  0  0  0  0
    1.9233    1.9354    0.0000 C   0  0  0  0  0  0  0  0  0  0  0  0
    2.6378    2.3479    0.0000 N   0  0  0  0  0  0  0  0  0  0  0  0
  1  2  1  0  0  0  0
  2  3  4  0  0  0  0
  3  4  4  0  0  0  0
  4  5  2  0  0  0  0
  4  6  4  0  0  0  0
  6  7  4  0  0  0  0
  7  8  4  0  0  0  0
  8  9  1  0  0  0  0
  9 10  1  0  0  0  0
 10 11  1  0  0  0  0
 11 12  4  0  0  0  0
 12 13  1  0  0  0  0
 12 14  4  0  0  0  0
 14 15  4  0  0  0  0
 15 16  4  0  0  0  0
 16 17  4  0  0  0  0
 11 17  4  0  0  0  0
 17 18  1  0  0  0  0
  8 19  4  0  0  0  0
 19 20  4  0  0  0  0
  6 20  4  0  0  0  0
 20 21  4  0  0  0  0
  2 21  4  0  0  0  0
M  STY  1   1 DAT
M  SAL   1  1   7
M  SDT   1 MRV_IMPLICIT_H                                        
M  SDD   1     0.5304   -0.4125    DR    ALL  0       0  
M  SED   1 IMPL_H1
M  END
> <IC50(uM)>
18.0

> <Outcome>
0.0

> <BindingDB ID>
50970247

> <BindingDB MonomerID>
50397820

> <BindingDB Ligand Name>
CHEMBL2177857

> <Curation/DataSource>
ChEMBL

> <Article DOI>
10.1021/jm300157n

> <PMID>
22621375

> <Patent Number>
?

> <Authors>
Bedingfield, PT; Cowen, D; Acklam, P; Cunningham, F; Parsons, MR; McConkey, GA; Fishwick, CW; Johnson, AP

> <Link to Ligand in BindingDB>
http://www.bindingdb.org/bind/chemsearch/marvin/MolStructure.jsp?monomerid=50397820

> <Link to Ligand-Target Pair in BindingDB>
http://www.bindingdb.org/jsp/dbsearch/PrimarySearch_ki.jsp?energyterm=kJ/mole&tag=r21&monomerid=50397820&enzyme=Dihydroorotate+dehydrogenase&column=ki&startPg=0&Increment=50&submit=Search

> <PubChem CID>
60166484

> <PubChem SID>
163346844

$$$$

  Mrv2115 07222212352D          

 31 35  0  0  0  0            999 V2000
    3.3523   -0.2854    0.0000 O   0  0  0  0  0  0  0  0  0  0  0  0
    3.3523   -1.1104    0.0000 C   0  0  0  0  0  0  0  0  0  0  0  0
    4.0668   -1.5229    0.0000 C   0  0  0  0  0  0  0  0  0  0  0  0
    4.7812   -1.1104    0.0000 C   0  0  0  0  0  0  0  0  0  0  0  0
    5.4957   -1.5229    0.0000 C   0  0  0  0  0  0  0  0  0  0  0  0
    6.2102   -1.1104    0.0000 F   0  0  0  0  0  0  0  0  0  0  0  0
    5.4957   -2.3479    0.0000 C   0  0  0  0  0  0  0  0  0  0  0  0
    4.7812   -2.7604    0.0000 C   0  0  0  0  0  0  0  0  0  0  0  0
    4.0668   -2.3479    0.0000 C   0  0  0  0  0  0  0  0  0  0  0  0
    3.3523   -2.7604    0.0000 C   0  0  0  0  0  0  0  0  0  0  0  0
    3.3523   -3.5854    0.0000 O   0  0  0  0  0  0  0  0  0  0  0  0
    2.6378   -2.3479    0.0000 C   0  0  0  0  0  0  0  0  0  0  0  0
    2.6378   -1.5229    0.0000 C   0  0  0  0  0  0  0  0  0  0  0  0
    1.8532   -1.2680    0.0000 N   0  0  0  0  0  0  0  0  0  0  0  0
    1.3683   -1.9354    0.0000 N   0  0  0  0  0  0  0  0  0  0  0  0
    1.8532   -2.6029    0.0000 N   0  0  0  0  0  0  0  0  0  0  0  0
    1.5983   -3.3875    0.0000 C   0  0  0  0  0  0  0  0  0  0  0  0
    2.1503   -4.0006    0.0000 C   0  0  0  0  0  0  0  0  0  0  0  0
    1.8953   -4.7852    0.0000 C   0  0  0  0  0  0  0  0  0  0  0  0
    2.4474   -5.3983    0.0000 F   0  0  0  0  0  0  0  0  0  0  0  0
    1.0884   -4.9567    0.0000 C   0  0  0  0  0  0  0  0  0  0  0  0
    0.8334   -5.7414    0.0000 C   0  0  0  0  0  0  0  0  0  0  0  0
    1.3855   -6.3545    0.0000 C   0  0  0  0  0  0  0  0  0  0  0  0
    1.1305   -7.1391    0.0000 C   0  0  0  0  0  0  0  0  0  0  0  0
    0.3236   -7.3106    0.0000 C   0  0  0  0  0  0  0  0  0  0  0  0
   -0.2285   -6.6975    0.0000 C   0  0  0  0  0  0  0  0  0  0  0  0
    0.0265   -5.9129    0.0000 C   0  0  0  0  0  0  0  0  0  0  0  0
   -0.5256   -5.2998    0.0000 F   0  0  0  0  0  0  0  0  0  0  0  0
    0.5363   -4.3437    0.0000 C   0  0  0  0  0  0  0  0  0  0  0  0
   -0.2706   -4.5152    0.0000 F   0  0  0  0  0  0  0  0  0  0  0  0
    0.7913   -3.5590    0.0000 C   0  0  0  0  0  0  0  0  0  0  0  0
  1  2  2  0  0  0  0
  2  3  1  0  0  0  0
  3  4  4  0  0  0  0
  4  5  4  0  0  0  0
  5  6  1  0  0  0  0
  5  7  4  0  0  0  0
  7  8  4  0  0  0  0
  8  9  4  0  0  0  0
  3  9  4  0  0  0  0
  9 10  1  0  0  0  0
 10 11  2  0  0  0  0
 10 12  1  0  0  0  0
 12 13  4  0  0  0  0
  2 13  1  0  0  0  0
 13 14  4  0  0  0  0
 14 15  4  0  0  0  0
 15 16  4  0  0  0  0
 12 16  4  0  0  0  0
 16 17  1  0  0  0  0
 17 18  4  0  0  0  0
 18 19  4  0  0  0  0
 19 20  1  0  0  0  0
 19 21  4  0  0  0  0
 21 22  1  0  0  0  0
 22 23  4  0  0  0  0
 23 24  4  0  0  0  0
 24 25  4  0  0  0  0
 25 26  4  0  0  0  0
 26 27  4  0  0  0  0
 22 27  4  0  0  0  0
 27 28  1  0  0  0  0
 21 29  4  0  0  0  0
 29 30  1  0  0  0  0
 29 31  4  0  0  0  0
 17 31  4  0  0  0  0
M  END
> <IC50(uM)>
0.098

> <Outcome>
1.0

> <BindingDB ID>
51338211

> <BindingDB MonomerID>
50541685

> <BindingDB Ligand Name>
CHEMBL4638560

> <Curation/DataSource>
ChEMBL

> <Article DOI>
10.1021/acs.jmedchem.0c00512

> <PMID>
32496056

> <Patent Number>
?

> <Authors>
Zuo, Z; Liu, X; Qian, X; Zeng, T; Sang, N; Liu, H; Zhou, Y; Tao, L; Zhou, X; Su, N; Yu, Y; Chen, Q; Luo, Y; Zhao, Y

> <Link to Ligand in BindingDB>
http://www.bindingdb.org/bind/chemsearch/marvin/MolStructure.jsp?monomerid=50541685

> <Link to Ligand-Target Pair in BindingDB>
http://www.bindingdb.org/jsp/dbsearch/PrimarySearch_ki.jsp?energyterm=kJ/mole&tag=r21&monomerid=50541685&enzyme=Dihydroorotate+dehydrogenase&column=ki&startPg=0&Increment=50&submit=Search

> <PubChem CID>
156011731

> <PubChem SID>
442143248

$$$$

  Mrv2115 07222212352D          

 35 38  0  0  0  0            999 V2000
   -0.6284    2.1599    0.0000 C   0  0  0  0  0  0  0  0  0  0  0  0
   -1.4534    2.1599    0.0000 C   0  0  0  0  0  0  0  0  0  0  0  0
   -1.8659    1.4455    0.0000 C   0  0  0  0  0  0  0  0  0  0  0  0
   -2.6909    1.4455    0.0000 C   0  0  0  0  0  0  0  0  0  0  0  0
   -3.1034    2.1599    0.0000 C   0  0  0  0  0  0  0  0  0  0  0  0
   -3.1034    0.7310    0.0000 O   0  0  0  0  0  0  0  0  0  0  0  0
   -2.6909    0.0165    0.0000 C   0  0  0  0  0  0  0  0  0  0  0  0
   -1.8659    0.0165    0.0000 C   0  0  0  0  0  0  0  0  0  0  0  0
   -1.4534   -0.6979    0.0000 C   0  0  0  0  0  0  0  0  0  0  0  0
   -0.6284   -0.6979    0.0000 N   0  0  0  0  0  0  0  0  0  0  0  0
   -0.1435   -1.3654    0.0000 N   0  0  0  0  0  0  0  0  0  0  0  0
    0.6411   -1.1104    0.0000 C   0  0  0  0  0  0  0  0  0  0  0  0
    0.6411   -0.2854    0.0000 N   0  0  0  0  0  0  0  0  0  0  0  0
   -0.1435   -0.0305    0.0000 C   0  0  0  0  0  0  0  0  0  0  0  0
   -0.3984    0.7541    0.0000 O   0  0  0  0  0  0  0  0  0  0  0  0
    1.3556    0.1271    0.0000 C   0  0  0  0  0  0  0  0  0  0  0  0
    2.0701   -0.2854    0.0000 C   0  0  0  0  0  0  0  0  0  0  0  0
    2.0701   -1.1104    0.0000 C   0  0  0  0  0  0  0  0  0  0  0  0
    1.3556   -1.5229    0.0000 C   0  0  0  0  0  0  0  0  0  0  0  0
   -1.8659   -1.4124    0.0000 C   0  0  0  0  0  0  0  0  0  0  0  0
   -1.4534   -2.1269    0.0000 F   0  0  0  0  0  0  0  0  0  0  0  0
   -2.6909   -1.4124    0.0000 C   0  0  0  0  0  0  0  0  0  0  0  0
   -3.1034   -0.6979    0.0000 C   0  0  0  0  0  0  0  0  0  0  0  0
   -3.9284   -0.6979    0.0000 C   0  0  0  0  0  0  0  0  0  0  0  0
   -4.3409    0.0165    0.0000 O   0  0  0  0  0  0  0  0  0  0  0  0
   -4.3409   -1.4124    0.0000 N   0  0  0  0  0  0  0  0  0  0  0  0
   -5.1659   -1.4124    0.0000 C   0  0  0  0  0  0  0  0  0  0  0  0
   -5.5784   -0.6979    0.0000 C   0  0  0  0  0  0  0  0  0  0  0  0
   -5.1659    0.0165    0.0000 C   0  0  0  0  0  0  0  0  0  0  0  0
   -6.4034   -0.6979    0.0000 C   0  0  0  0  0  0  0  0  0  0  0  0
   -6.8159   -1.4124    0.0000 C   0  0  0  0  0  0  0  0  0  0  0  0
   -6.4034   -2.1269    0.0000 N   0  0  0  0  0  0  0  0  0  0  0  0
   -5.5784   -2.1269    0.0000 C   0  0  0  0  0  0  0  0  0  0  0  0
   -5.1659   -2.8414    0.0000 O   0  0  0  0  0  0  0  0  0  0  0  0
   -5.5784   -3.5558    0.0000 C   0  0  0  0  0  0  0  0  0  0  0  0
  1  2  1  0  0  0  0
  2  3  1  0  0  0  0
  3  4  1  0  0  0  0
  4  5  1  0  0  0  0
  4  6  1  0  0  0  0
  6  7  1  0  0  0  0
  7  8  4  0  0  0  0
  8  9  4  0  0  0  0
  9 10  1  0  0  0  0
 10 11  4  0  0  0  0
 11 12  4  0  0  0  0
 12 13  4  0  0  0  0
 13 14  4  0  0  0  0
 10 14  4  0  0  0  0
 14 15  2  0  0  0  0
 13 16  1  0  0  0  0
 16 17  1  0  0  0  0
 17 18  1  0  0  0  0
 18 19  1  0  0  0  0
 12 19  1  0  0  0  0
  9 20  4  0  0  0  0
 20 21  1  0  0  0  0
 20 22  4  0  0  0  0
 22 23  4  0  0  0  0
  7 23  4  0  0  0  0
 23 24  1  0  0  0  0
 24 25  2  0  0  0  0
 24 26  1  0  0  0  0
 26 27  1  0  0  0  0
 27 28  4  0  0  0  0
 28 29  1  0  0  0  0
 28 30  4  0  0  0  0
 30 31  4  0  0  0  0
 31 32  4  0  0  0  0
 32 33  4  0  0  0  0
 27 33  4  0  0  0  0
 33 34  1  0  0  0  0
 34 35  1  0  0  0  0
M  END
> <IC50(uM)>
0.0058

> <Outcome>
1.0

> <BindingDB ID>
1020387

> <BindingDB MonomerID>
490343

> <BindingDB Ligand Name>
5-fluoro-N-(2-methoxy-4-methylpyridin-3-yl)-4-(3-oxo-5,6,7,8-tetrahydro[1,2,4]triazolo[4,3-a]pyridin-2(3H)-yl)-2-[(2S)-pentan-2-yloxy]benzamide::US10968216, Example 11

> <Curation/DataSource>
US Patent

> <Article DOI>
?

> <PMID>
?

> <Patent Number>
US10968216

> <Authors>
Gradl, SN; Nguyen, D; Eis, K; Gunther, J; Stellfeld, T; Janzer, A; Christian, S; Mueller, T; Sheikh, SE; Zhou, HJ; Zhao, C; Sykes, DB; Ferrara, SJ; Liu, K; Herbert, SA; Merz, C; Niehues, M; Nising, CF; Schafer, M; Zimmermann, K; Knablein, J; Thede, K; Faupel, T

> <Link to Ligand in BindingDB>
http://www.bindingdb.org/bind/chemsearch/marvin/MolStructure.jsp?monomerid=490343

> <Link to Ligand-Target Pair in BindingDB>
http://www.bindingdb.org/jsp/dbsearch/PrimarySearch_ki.jsp?energyterm=kJ/mole&tag=r21&monomerid=490343&enzyme=Dihydroorotate+dehydrogenase&column=ki&startPg=0&Increment=50&submit=Search

> <PubChem CID>
142335905

> <PubChem SID>
447117070

$$$$

  Mrv2115 07222212352D          

 27 31  0  0  0  0            999 V2000
    0.1536    1.3672    0.0000 O   0  0  0  0  0  0  0  0  0  0  0  0
   -0.3984    0.7541    0.0000 C   0  0  0  0  0  0  0  0  0  0  0  0
   -1.2054    0.9256    0.0000 N   0  0  0  0  0  0  0  0  0  0  0  0
   -1.4604    1.7103    0.0000 C   0  0  0  0  0  0  0  0  0  0  0  0
   -2.2673    1.8818    0.0000 C   0  0  0  0  0  0  0  0  0  0  0  0
   -2.5223    2.6664    0.0000 C   0  0  0  0  0  0  0  0  0  0  0  0
   -1.9702    3.2795    0.0000 C   0  0  0  0  0  0  0  0  0  0  0  0
   -1.1633    3.1080    0.0000 C   0  0  0  0  0  0  0  0  0  0  0  0
   -0.9083    2.3234    0.0000 C   0  0  0  0  0  0  0  0  0  0  0  0
   -0.0833    2.3234    0.0000 C   0  0  0  0  0  0  0  0  0  0  0  0
    0.1716    3.1080    0.0000 N   0  0  0  0  0  0  0  0  0  0  0  0
   -0.4958    3.5929    0.0000 N   0  0  0  0  0  0  0  0  0  0  0  0
   -0.4958    4.4179    0.0000 C   0  0  0  0  0  0  0  0  0  0  0  0
   -1.2103    4.8304    0.0000 C   0  0  0  0  0  0  0  0  0  0  0  0
   -1.2103    5.6554    0.0000 C   0  0  0  0  0  0  0  0  0  0  0  0
   -0.4958    6.0679    0.0000 C   0  0  0  0  0  0  0  0  0  0  0  0
    0.2186    5.6554    0.0000 C   0  0  0  0  0  0  0  0  0  0  0  0
    0.2186    4.8304    0.0000 C   0  0  0  0  0  0  0  0  0  0  0  0
   -0.1435   -0.0305    0.0000 C   0  0  0  0  0  0  0  0  0  0  0  0
   -0.6284   -0.6979    0.0000 N   0  0  0  0  0  0  0  0  0  0  0  0
   -0.1435   -1.3654    0.0000 O   0  0  0  0  0  0  0  0  0  0  0  0
    0.6411   -1.1104    0.0000 C   0  0  0  0  0  0  0  0  0  0  0  0
    0.6411   -0.2854    0.0000 C   0  0  0  0  0  0  0  0  0  0  0  0
    1.3556    0.1271    0.0000 C   0  0  0  0  0  0  0  0  0  0  0  0
    2.0701   -0.2854    0.0000 C   0  0  0  0  0  0  0  0  0  0  0  0
    2.0701   -1.1104    0.0000 C   0  0  0  0  0  0  0  0  0  0  0  0
    1.3556   -1.5229    0.0000 C   0  0  0  0  0  0  0  0  0  0  0  0
  1  2  2  0  0  0  0
  2  3  1  0  0  0  0
  3  4  1  0  0  0  0
  4  5  1  0  0  0  0
  5  6  1  0  0  0  0
  6  7  1  0  0  0  0
  7  8  1  0  0  0  0
  8  9  4  0  0  0  0
  4  9  1  0  0  0  0
  9 10  4  0  0  0  0
 10 11  4  0  0  0  0
 11 12  4  0  0  0  0
  8 12  4  0  0  0  0
 12 13  1  0  0  0  0
 13 14  4  0  0  0  0
 14 15  4  0  0  0  0
 15 16  4  0  0  0  0
 16 17  4  0  0  0  0
 17 18  4  0  0  0  0
 13 18  4  0  0  0  0
  2 19  1  0  0  0  0
 19 20  4  0  0  0  0
 20 21  4  0  0  0  0
 21 22  4  0  0  0  0
 22 23  4  0  0  0  0
 19 23  4  0  0  0  0
 23 24  1  0  0  0  0
 24 25  1  0  0  0  0
 25 26  1  0  0  0  0
 26 27  1  0  0  0  0
 22 27  1  0  0  0  0
M  END
> <IC50(uM)>
0.025500000000000002

> <Outcome>
1.0

> <BindingDB ID>
51334962; 993090

> <BindingDB MonomerID>
477592

> <BindingDB Ligand Name>
N-(1-phenyl-4,5,6,7-tetrahydro-1H-indazol-4-yl)-4,5,6,7-tetrahydro-1,2-benzoxazole-3-carboxamide::US10889564, Example 22

> <Curation/DataSource>
ChEMBL; US Patent

> <Article DOI>
10.1021/acs.jmedchem.9b01658; ?

> <PMID>
32212728; ?

> <Patent Number>
?; US10889564

> <Authors>
Popova, G; Ladds, MJGW; Johansson, L; Saleh, A; Larsson, J; Sandberg, L; Sahlberg, SH; Qian, W; Gullberg, H; Garg, N; Gustavsson, AL; Haraldsson, M; Lane, D; Yngve, U; Lain, S; Lain, S; Drummond, C; Leeuwen, IV; Haraldsson, M; Johansson, L; Sandberg, L; Yngve, U

> <Link to Ligand in BindingDB>
http://www.bindingdb.org/bind/chemsearch/marvin/MolStructure.jsp?monomerid=477592

> <Link to Ligand-Target Pair in BindingDB>
http://www.bindingdb.org/jsp/dbsearch/PrimarySearch_ki.jsp?energyterm=kJ/mole&tag=r21&monomerid=477592&enzyme=Dihydroorotate+dehydrogenase&column=ki&startPg=0&Increment=50&submit=Search

> <PubChem CID>
129104683

> <PubChem SID>
442137209

$$$$

  Mrv2115 07222212352D          

 21 23  0  0  0  0            999 V2000
   -2.6543    4.1914    0.0000 F   0  0  0  0  0  0  0  0  0  0  0  0
   -1.8696    4.4464    0.0000 C   0  0  0  0  0  0  0  0  0  0  0  0
   -1.6147    3.6617    0.0000 F   0  0  0  0  0  0  0  0  0  0  0  0
   -2.1246    5.2310    0.0000 F   0  0  0  0  0  0  0  0  0  0  0  0
   -1.0850    4.7013    0.0000 C   0  0  0  0  0  0  0  0  0  0  0  0
   -0.9135    5.5083    0.0000 C   0  0  0  0  0  0  0  0  0  0  0  0
   -0.1289    5.7632    0.0000 C   0  0  0  0  0  0  0  0  0  0  0  0
    0.4842    5.2112    0.0000 C   0  0  0  0  0  0  0  0  0  0  0  0
    1.2688    5.4661    0.0000 N   0  0  0  0  0  0  0  0  0  0  0  0
    1.8819    4.9141    0.0000 C   0  0  0  0  0  0  0  0  0  0  0  0
    1.7104    4.1071    0.0000 S   0  0  0  0  0  0  0  0  0  0  0  0
    2.6666    5.1690    0.0000 C   0  0  0  0  0  0  0  0  0  0  0  0
    2.9215    5.9537    0.0000 C   0  0  0  0  0  0  0  0  0  0  0  0
    3.7465    5.9537    0.0000 N   0  0  0  0  0  0  0  0  0  0  0  0
    4.0014    5.1690    0.0000 O   0  0  0  0  0  0  0  0  0  0  0  0
    3.3340    4.6841    0.0000 C   0  0  0  0  0  0  0  0  0  0  0  0
    3.3340    3.8591    0.0000 C   0  0  0  0  0  0  0  0  0  0  0  0
    3.7465    3.1446    0.0000 C   0  0  0  0  0  0  0  0  0  0  0  0
    2.9215    3.1446    0.0000 C   0  0  0  0  0  0  0  0  0  0  0  0
    0.3127    4.4042    0.0000 C   0  0  0  0  0  0  0  0  0  0  0  0
   -0.4719    4.1493    0.0000 C   0  0  0  0  0  0  0  0  0  0  0  0
  1  2  1  0  0  0  0
  2  3  1  0  0  0  0
  2  4  1  0  0  0  0
  2  5  1  0  0  0  0
  5  6  4  0  0  0  0
  6  7  4  0  0  0  0
  7  8  4  0  0  0  0
  8  9  1  0  0  0  0
  9 10  1  0  0  0  0
 10 11  2  0  0  0  0
 10 12  1  0  0  0  0
 12 13  4  0  0  0  0
 13 14  4  0  0  0  0
 14 15  4  0  0  0  0
 15 16  4  0  0  0  0
 12 16  4  0  0  0  0
 16 17  1  0  0  0  0
 17 18  1  0  0  0  0
 18 19  1  0  0  0  0
 17 19  1  0  0  0  0
  8 20  4  0  0  0  0
 20 21  4  0  0  0  0
  5 21  4  0  0  0  0
M  END
> <IC50(uM)>
3.2

> <Outcome>
0.0

> <BindingDB ID>
50123302

> <BindingDB MonomerID>
50071394

> <BindingDB Ligand Name>
5-Cyclopropyl-isoxazole-4-carbothioic acid (4-trifluoromethyl-phenyl)-amide::CHEMBL70708

> <Curation/DataSource>
ChEMBL

> <Article DOI>
10.1016/s0960-894x(98)00365-5

> <PMID>
9873513

> <Patent Number>
?

> <Authors>
Albert, R; Knecht, H; Andersen, E; Hungerford, V; Schreier, MH; Papageorgiou, C

> <Link to Ligand in BindingDB>
http://www.bindingdb.org/bind/chemsearch/marvin/MolStructure.jsp?monomerid=50071394

> <Link to Ligand-Target Pair in BindingDB>
http://www.bindingdb.org/jsp/dbsearch/PrimarySearch_ki.jsp?energyterm=kJ/mole&tag=r21&monomerid=50071394&enzyme=Dihydroorotate+dehydrogenase&column=ki&startPg=0&Increment=50&submit=Search

> <PubChem CID>
44310310

> <PubChem SID>
103965148

$$$$

  Mrv2115 07222212352D          

 35 38  0  0  0  0            999 V2000
   -5.1659    1.4455    0.0000 C   0  0  0  0  0  0  0  0  0  0  0  0
   -5.5784    0.7310    0.0000 C   0  0  0  0  0  0  0  0  0  0  0  0
   -6.4034    0.7310    0.0000 C   0  0  0  0  0  0  0  0  0  0  0  0
   -6.8159    0.0165    0.0000 C   0  0  0  0  0  0  0  0  0  0  0  0
   -6.4034   -0.6979    0.0000 N   0  0  0  0  0  0  0  0  0  0  0  0
   -5.5784   -0.6979    0.0000 C   0  0  0  0  0  0  0  0  0  0  0  0
   -5.1659   -1.4124    0.0000 Cl  0  0  0  0  0  0  0  0  0  0  0  0
   -5.1659    0.0165    0.0000 C   0  0  0  0  0  0  0  0  0  0  0  0
   -4.3409    0.0165    0.0000 N   0  0  0  0  0  0  0  0  0  0  0  0
   -3.9284   -0.6979    0.0000 C   0  0  0  0  0  0  0  0  0  0  0  0
   -4.3409   -1.4124    0.0000 O   0  0  0  0  0  0  0  0  0  0  0  0
   -3.1034   -0.6979    0.0000 C   0  0  0  0  0  0  0  0  0  0  0  0
   -2.6909    0.0165    0.0000 C   0  0  0  0  0  0  0  0  0  0  0  0
   -1.8659    0.0165    0.0000 C   0  0  0  0  0  0  0  0  0  0  0  0
   -1.4534    0.7310    0.0000 F   0  0  0  0  0  0  0  0  0  0  0  0
   -1.4534   -0.6979    0.0000 C   0  0  0  0  0  0  0  0  0  0  0  0
   -0.6284   -0.6979    0.0000 N   0  0  0  0  0  0  0  0  0  0  0  0
   -0.1435   -1.3654    0.0000 N   0  0  0  0  0  0  0  0  0  0  0  0
    0.6411   -1.1104    0.0000 C   0  0  0  0  0  0  0  0  0  0  0  0
    0.6411   -0.2854    0.0000 N   0  0  0  0  0  0  0  0  0  0  0  0
   -0.1435   -0.0305    0.0000 C   0  0  0  0  0  0  0  0  0  0  0  0
   -0.3984    0.7541    0.0000 O   0  0  0  0  0  0  0  0  0  0  0  0
    1.3556    0.1271    0.0000 C   0  0  0  0  0  0  0  0  0  0  0  0
    2.0701   -0.2854    0.0000 C   0  0  0  0  0  0  0  0  0  0  0  0
    2.0701   -1.1104    0.0000 O   0  0  0  0  0  0  0  0  0  0  0  0
    1.3556   -1.5229    0.0000 C   0  0  0  0  0  0  0  0  0  0  0  0
   -1.8659   -1.4124    0.0000 C   0  0  0  0  0  0  0  0  0  0  0  0
   -2.6909   -1.4124    0.0000 C   0  0  0  0  0  0  0  0  0  0  0  0
   -3.1034   -2.1269    0.0000 O   0  0  0  0  0  0  0  0  0  0  0  0
   -2.6909   -2.8414    0.0000 C   0  0  0  0  0  0  0  0  0  0  0  0
   -1.8659   -2.8414    0.0000 C   0  0  0  0  0  0  0  0  0  0  0  0
   -3.1034   -3.5558    0.0000 C   0  0  0  0  0  0  0  0  0  0  0  0
   -3.8179   -3.1433    0.0000 F   0  0  0  0  0  0  0  0  0  0  0  0
   -2.3890   -3.9683    0.0000 F   0  0  0  0  0  0  0  0  0  0  0  0
   -3.5159   -4.2703    0.0000 F   0  0  0  0  0  0  0  0  0  0  0  0
  1  2  1  0  0  0  0
  2  3  4  0  0  0  0
  3  4  4  0  0  0  0
  4  5  4  0  0  0  0
  5  6  4  0  0  0  0
  6  7  1  0  0  0  0
  6  8  4  0  0  0  0
  2  8  4  0  0  0  0
  8  9  1  0  0  0  0
  9 10  1  0  0  0  0
 10 11  2  0  0  0  0
 10 12  1  0  0  0  0
 12 13  4  0  0  0  0
 13 14  4  0  0  0  0
 14 15  1  0  0  0  0
 14 16  4  0  0  0  0
 16 17  1  0  0  0  0
 17 18  4  0  0  0  0
 18 19  4  0  0  0  0
 19 20  4  0  0  0  0
 20 21  4  0  0  0  0
 17 21  4  0  0  0  0
 21 22  2  0  0  0  0
 20 23  1  0  0  0  0
 23 24  1  0  0  0  0
 24 25  1  0  0  0  0
 25 26  1  0  0  0  0
 19 26  1  0  0  0  0
 16 27  4  0  0  0  0
 27 28  4  0  0  0  0
 12 28  4  0  0  0  0
 28 29  1  0  0  0  0
 29 30  1  0  0  0  0
 30 31  1  0  0  0  0
 30 32  1  0  0  0  0
 32 33  1  0  0  0  0
 32 34  1  0  0  0  0
 32 35  1  0  0  0  0
M  END
> <IC50(uM)>
0.1

> <Outcome>
1.0

> <BindingDB ID>
1020599

> <BindingDB MonomerID>
490538

> <BindingDB Ligand Name>
N-(2-chloro-4-methylpyridin-3-yl)-5-fluoro-4-(3-oxo-5,6-dihydro-3H-[1,2,4]triazolo[3,4-c]-[1,4]oxazin-2(8H)-yl)-2-{[(2S)-1,1,1-trifluoropropan-2-yl]oxy}benzamide::US10968216, Example 206

> <Curation/DataSource>
US Patent

> <Article DOI>
?

> <PMID>
?

> <Patent Number>
US10968216

> <Authors>
Gradl, SN; Nguyen, D; Eis, K; Gunther, J; Stellfeld, T; Janzer, A; Christian, S; Mueller, T; Sheikh, SE; Zhou, HJ; Zhao, C; Sykes, DB; Ferrara, SJ; Liu, K; Herbert, SA; Merz, C; Niehues, M; Nising, CF; Schafer, M; Zimmermann, K; Knablein, J; Thede, K; Faupel, T

> <Link to Ligand in BindingDB>
http://www.bindingdb.org/bind/chemsearch/marvin/MolStructure.jsp?monomerid=490538

> <Link to Ligand-Target Pair in BindingDB>
http://www.bindingdb.org/jsp/dbsearch/PrimarySearch_ki.jsp?energyterm=kJ/mole&tag=r21&monomerid=490538&enzyme=Dihydroorotate+dehydrogenase&column=ki&startPg=0&Increment=50&submit=Search

> <PubChem CID>
134474016

> <PubChem SID>
447117264

$$$$

  Mrv2115 07222212352D          

 26 29  0  0  0  0            999 V2000
    3.9934    2.4750    0.0000 O   0  0  0  0  0  0  0  0  0  0  0  0
    3.2789    2.0625    0.0000 C   0  0  0  0  0  0  0  0  0  0  0  0
    2.5645    2.4750    0.0000 O   0  0  0  0  0  0  0  0  0  0  0  0
    3.2789    1.2375    0.0000 C   0  0  0  0  0  0  0  0  0  0  0  0
    3.9934    0.8250    0.0000 C   0  0  0  0  0  0  0  0  0  0  0  0
    3.9934    0.0000    0.0000 C   0  0  0  0  0  0  0  0  0  0  0  0
    4.7079   -0.4125    0.0000 Cl  0  0  0  0  0  0  0  0  0  0  0  0
    3.2789   -0.4125    0.0000 C   0  0  0  0  0  0  0  0  0  0  0  0
    2.5645    0.0000    0.0000 C   0  0  0  0  0  0  0  0  0  0  0  0
    1.7798   -0.2549    0.0000 N   0  0  0  0  0  0  0  0  0  0  0  0
    1.2949    0.4125    0.0000 C   0  0  0  0  0  0  0  0  0  0  0  0
    0.4699    0.4125    0.0000 C   0  0  0  0  0  0  0  0  0  0  0  0
    0.0574   -0.3020    0.0000 C   0  0  0  0  0  0  0  0  0  0  0  0
   -0.7676   -0.3020    0.0000 C   0  0  0  0  0  0  0  0  0  0  0  0
   -1.1801    0.4125    0.0000 C   0  0  0  0  0  0  0  0  0  0  0  0
   -2.0051    0.4125    0.0000 C   0  0  0  0  0  0  0  0  0  0  0  0
   -2.4176   -0.3020    0.0000 C   0  0  0  0  0  0  0  0  0  0  0  0
   -3.2426   -0.3020    0.0000 C   0  0  0  0  0  0  0  0  0  0  0  0
   -3.6551    0.4125    0.0000 C   0  0  0  0  0  0  0  0  0  0  0  0
   -3.2426    1.1270    0.0000 C   0  0  0  0  0  0  0  0  0  0  0  0
   -2.4176    1.1270    0.0000 C   0  0  0  0  0  0  0  0  0  0  0  0
   -2.0051    1.8414    0.0000 F   0  0  0  0  0  0  0  0  0  0  0  0
   -0.7676    1.1270    0.0000 C   0  0  0  0  0  0  0  0  0  0  0  0
    0.0574    1.1270    0.0000 C   0  0  0  0  0  0  0  0  0  0  0  0
    1.7798    1.0799    0.0000 N   0  0  0  0  0  0  0  0  0  0  0  0
    2.5645    0.8250    0.0000 C   0  0  0  0  0  0  0  0  0  0  0  0
  1  2  2  0  0  0  0
  2  3  1  0  0  0  0
  2  4  1  0  0  0  0
  4  5  4  0  0  0  0
  5  6  4  0  0  0  0
  6  7  1  0  0  0  0
  6  8  4  0  0  0  0
  8  9  4  0  0  0  0
  9 10  4  0  0  0  0
 10 11  4  0  0  0  0
 11 12  1  0  0  0  0
 12 13  4  0  0  0  0
 13 14  4  0  0  0  0
 14 15  4  0  0  0  0
 15 16  1  0  0  0  0
 16 17  4  0  0  0  0
 17 18  4  0  0  0  0
 18 19  4  0  0  0  0
 19 20  4  0  0  0  0
 20 21  4  0  0  0  0
 16 21  4  0  0  0  0
 21 22  1  0  0  0  0
 15 23  4  0  0  0  0
 23 24  4  0  0  0  0
 12 24  4  0  0  0  0
 11 25  4  0  0  0  0
 25 26  4  0  0  0  0
  4 26  4  0  0  0  0
  9 26  4  0  0  0  0
M  STY  1   1 DAT
M  SAL   1  1  10
M  SDT   1 MRV_IMPLICIT_H                                        
M  SDD   1     0.5304   -0.4125    DR    ALL  0       0  
M  SED   1 IMPL_H1
M  END
> <IC50(uM)>
0.949

> <Outcome>
1.0

> <BindingDB ID>
297767

> <BindingDB MonomerID>
155423

> <BindingDB Ligand Name>
US9006454, I45

> <Curation/DataSource>
US Patent

> <Article DOI>
?

> <PMID>
?

> <Patent Number>
US9006454

> <Authors>
Thunuguntla, SS; Subramanya, H; Kunnam, SR; Sanivaru Vijay, SR; Bingi, C; Kusanur, R; Schwarz, M; Arlt, M

> <Link to Ligand in BindingDB>
http://www.bindingdb.org/bind/chemsearch/marvin/MolStructure.jsp?monomerid=155423

> <Link to Ligand-Target Pair in BindingDB>
http://www.bindingdb.org/jsp/dbsearch/PrimarySearch_ki.jsp?energyterm=kJ/mole&tag=r21&monomerid=155423&enzyme=Dihydroorotate+dehydrogenase&column=ki&startPg=0&Increment=50&submit=Search

> <PubChem CID>
46946581

> <PubChem SID>
253658360

$$$$

  Mrv2115 07222212352D          

 35 38  0  0  0  0            999 V2000
   -5.1659   -2.8414    0.0000 C   0  0  0  0  0  0  0  0  0  0  0  0
   -5.5784   -2.1269    0.0000 C   0  0  0  0  0  0  0  0  0  0  0  0
   -6.4034   -2.1269    0.0000 C   0  0  0  0  0  0  0  0  0  0  0  0
   -6.8159   -1.4124    0.0000 C   0  0  0  0  0  0  0  0  0  0  0  0
   -6.4034   -0.6979    0.0000 C   0  0  0  0  0  0  0  0  0  0  0  0
   -5.5784   -0.6979    0.0000 C   0  0  0  0  0  0  0  0  0  0  0  0
   -5.1659    0.0165    0.0000 F   0  0  0  0  0  0  0  0  0  0  0  0
   -5.1659   -1.4124    0.0000 C   0  0  0  0  0  0  0  0  0  0  0  0
   -4.3409   -1.4124    0.0000 N   0  0  0  0  0  0  0  0  0  0  0  0
   -3.9284   -0.6979    0.0000 C   0  0  0  0  0  0  0  0  0  0  0  0
   -4.3409    0.0165    0.0000 O   0  0  0  0  0  0  0  0  0  0  0  0
   -3.1034   -0.6979    0.0000 C   0  0  0  0  0  0  0  0  0  0  0  0
   -2.6909    0.0165    0.0000 C   0  0  0  0  0  0  0  0  0  0  0  0
   -1.8659    0.0165    0.0000 C   0  0  0  0  0  0  0  0  0  0  0  0
   -1.4534    0.7310    0.0000 F   0  0  0  0  0  0  0  0  0  0  0  0
   -1.4534   -0.6979    0.0000 C   0  0  0  0  0  0  0  0  0  0  0  0
   -0.6284   -0.6979    0.0000 N   0  0  0  0  0  0  0  0  0  0  0  0
   -0.1435   -1.3654    0.0000 N   0  0  0  0  0  0  0  0  0  0  0  0
    0.6411   -1.1104    0.0000 C   0  0  0  0  0  0  0  0  0  0  0  0
    0.6411   -0.2854    0.0000 N   0  0  0  0  0  0  0  0  0  0  0  0
   -0.1435   -0.0305    0.0000 C   0  0  0  0  0  0  0  0  0  0  0  0
   -0.3984    0.7541    0.0000 O   0  0  0  0  0  0  0  0  0  0  0  0
    1.3556    0.1271    0.0000 C   0  0  0  0  0  0  0  0  0  0  0  0
    2.0701   -0.2854    0.0000 C   0  0  0  0  0  0  0  0  0  0  0  0
    2.0701   -1.1104    0.0000 C   0  0  0  0  0  0  0  0  0  0  0  0
    1.3556   -1.5229    0.0000 C   0  0  0  0  0  0  0  0  0  0  0  0
   -1.8659   -1.4124    0.0000 C   0  0  0  0  0  0  0  0  0  0  0  0
   -2.6909   -1.4124    0.0000 C   0  0  0  0  0  0  0  0  0  0  0  0
   -3.1034   -2.1269    0.0000 O   0  0  0  0  0  0  0  0  0  0  0  0
   -2.6909   -2.8414    0.0000 C   0  0  0  0  0  0  0  0  0  0  0  0
   -1.8659   -2.8414    0.0000 C   0  0  0  0  0  0  0  0  0  0  0  0
   -3.1034   -3.5558    0.0000 C   0  0  0  0  0  0  0  0  0  0  0  0
   -2.6909   -4.2703    0.0000 N   0  0  0  0  0  0  0  0  0  0  0  0
   -1.8659   -4.2703    0.0000 C   0  0  0  0  0  0  0  0  0  0  0  0
   -3.1034   -4.9848    0.0000 C   0  0  0  0  0  0  0  0  0  0  0  0
  1  2  1  0  0  0  0
  2  3  4  0  0  0  0
  3  4  4  0  0  0  0
  4  5  4  0  0  0  0
  5  6  4  0  0  0  0
  6  7  1  0  0  0  0
  6  8  4  0  0  0  0
  2  8  4  0  0  0  0
  8  9  1  0  0  0  0
  9 10  1  0  0  0  0
 10 11  2  0  0  0  0
 10 12  1  0  0  0  0
 12 13  4  0  0  0  0
 13 14  4  0  0  0  0
 14 15  1  0  0  0  0
 14 16  4  0  0  0  0
 16 17  1  0  0  0  0
 17 18  4  0  0  0  0
 18 19  4  0  0  0  0
 19 20  4  0  0  0  0
 20 21  4  0  0  0  0
 17 21  4  0  0  0  0
 21 22  2  0  0  0  0
 20 23  1  0  0  0  0
 23 24  1  0  0  0  0
 24 25  1  0  0  0  0
 25 26  1  0  0  0  0
 19 26  1  0  0  0  0
 16 27  4  0  0  0  0
 27 28  4  0  0  0  0
 12 28  4  0  0  0  0
 28 29  1  0  0  0  0
 29 30  1  0  0  0  0
 30 31  1  0  0  0  0
 30 32  1  0  0  0  0
 32 33  1  0  0  0  0
 33 34  1  0  0  0  0
 33 35  1  0  0  0  0
M  END
> <IC50(uM)>
0.20915

> <Outcome>
1.0

> <BindingDB ID>
1020671; 1020672

> <BindingDB MonomerID>
490597; 490598

> <BindingDB Ligand Name>
2-{[(2S)-1-(dimethylamino)propan-2-yl]oxy}-5-fluoro-N-(2-fluoro-6-methylphenyl)-4-(3-oxo-5,6,7,8-tetrahydro[1,2,4]triazolo[4,3-a]pyridin-2(3H)-yl)benzamide::US10968216, Example 265; 2-{[(2R)-1-(dimethylamino)propan-2-yl]oxy}-5-fluoro-N-(2-fluoro-6-methylphenyl)-4-(3-oxo-5,6,7,8-tetrahydro[1,2,4]triazolo[4,3-a]pyridin-2(3H)-yl)benzamide::US10968216, Example 266

> <Curation/DataSource>
US Patent

> <Article DOI>
?

> <PMID>
?

> <Patent Number>
US10968216

> <Authors>
Gradl, SN; Nguyen, D; Eis, K; Gunther, J; Stellfeld, T; Janzer, A; Christian, S; Mueller, T; Sheikh, SE; Zhou, HJ; Zhao, C; Sykes, DB; Ferrara, SJ; Liu, K; Herbert, SA; Merz, C; Niehues, M; Nising, CF; Schafer, M; Zimmermann, K; Knablein, J; Thede, K; Faupel, T

> <Link to Ligand in BindingDB>
http://www.bindingdb.org/bind/chemsearch/marvin/MolStructure.jsp?monomerid=490597; http://www.bindingdb.org/bind/chemsearch/marvin/MolStructure.jsp?monomerid=490598

> <Link to Ligand-Target Pair in BindingDB>
http://www.bindingdb.org/jsp/dbsearch/PrimarySearch_ki.jsp?energyterm=kJ/mole&tag=r21&monomerid=490597&enzyme=Dihydroorotate+dehydrogenase&column=ki&startPg=0&Increment=50&submit=Search; http://www.bindingdb.org/jsp/dbsearch/PrimarySearch_ki.jsp?energyterm=kJ/mole&tag=r21&monomerid=490598&enzyme=Dihydroorotate+dehydrogenase&column=ki&startPg=0&Increment=50&submit=Search

> <PubChem CID>
134474426; 134474180

> <PubChem SID>
447117323; 447117324

$$$$

  Mrv2115 07222212352D          

 23 24  0  0  0  0            999 V2000
    1.4289   -0.8250    0.0000 C   0  0  0  0  0  0  0  0  0  0  0  0
    1.4289   -1.6500    0.0000 C   0  0  0  0  0  0  0  0  0  0  0  0
    0.6039   -1.6500    0.0000 C   0  0  0  0  0  0  0  0  0  0  0  0
    2.2539   -1.6500    0.0000 C   0  0  0  0  0  0  0  0  0  0  0  0
    1.4289   -2.4750    0.0000 C   0  0  0  0  0  0  0  0  0  0  0  0
    2.0964   -2.9599    0.0000 O   0  0  0  0  0  0  0  0  0  0  0  0
    1.8414   -3.7445    0.0000 N   0  0  0  0  0  0  0  0  0  0  0  0
    1.0164   -3.7445    0.0000 C   0  0  0  0  0  0  0  0  0  0  0  0
    0.7615   -2.9599    0.0000 C   0  0  0  0  0  0  0  0  0  0  0  0
   -0.0231   -2.7050    0.0000 C   0  0  0  0  0  0  0  0  0  0  0  0
   -0.1946   -1.8980    0.0000 S   0  0  0  0  0  0  0  0  0  0  0  0
   -0.6362   -3.2570    0.0000 N   0  0  0  0  0  0  0  0  0  0  0  0
   -1.4208   -3.0021    0.0000 C   0  0  0  0  0  0  0  0  0  0  0  0
   -2.0339   -3.5541    0.0000 C   0  0  0  0  0  0  0  0  0  0  0  0
   -2.8186   -3.2992    0.0000 C   0  0  0  0  0  0  0  0  0  0  0  0
   -2.9901   -2.4922    0.0000 C   0  0  0  0  0  0  0  0  0  0  0  0
   -3.7747   -2.2373    0.0000 O   0  0  0  0  0  0  0  0  0  0  0  0
   -4.3878   -2.7893    0.0000 C   0  0  0  0  0  0  0  0  0  0  0  0
   -5.0009   -3.3413    0.0000 F   0  0  0  0  0  0  0  0  0  0  0  0
   -4.9398   -2.1762    0.0000 F   0  0  0  0  0  0  0  0  0  0  0  0
   -3.8358   -3.4024    0.0000 F   0  0  0  0  0  0  0  0  0  0  0  0
   -2.3770   -1.9402    0.0000 C   0  0  0  0  0  0  0  0  0  0  0  0
   -1.5924   -2.1951    0.0000 C   0  0  0  0  0  0  0  0  0  0  0  0
  1  2  1  0  0  0  0
  2  3  1  0  0  0  0
  2  4  1  0  0  0  0
  2  5  1  0  0  0  0
  5  6  4  0  0  0  0
  6  7  4  0  0  0  0
  7  8  4  0  0  0  0
  8  9  4  0  0  0  0
  5  9  4  0  0  0  0
  9 10  1  0  0  0  0
 10 11  2  0  0  0  0
 10 12  1  0  0  0  0
 12 13  1  0  0  0  0
 13 14  4  0  0  0  0
 14 15  4  0  0  0  0
 15 16  4  0  0  0  0
 16 17  1  0  0  0  0
 17 18  1  0  0  0  0
 18 19  1  0  0  0  0
 18 20  1  0  0  0  0
 18 21  1  0  0  0  0
 16 22  4  0  0  0  0
 22 23  4  0  0  0  0
 13 23  4  0  0  0  0
M  END
> <IC50(uM)>
50.0

> <Outcome>
0.0

> <BindingDB ID>
50123312

> <BindingDB MonomerID>
50071404

> <BindingDB Ligand Name>
5-tert-Butyl-isoxazole-4-carbothioic acid (4-trifluoromethoxy-phenyl)-amide::CHEMBL71934

> <Curation/DataSource>
ChEMBL

> <Article DOI>
10.1016/s0960-894x(98)00365-5

> <PMID>
9873513

> <Patent Number>
?

> <Authors>
Albert, R; Knecht, H; Andersen, E; Hungerford, V; Schreier, MH; Papageorgiou, C

> <Link to Ligand in BindingDB>
http://www.bindingdb.org/bind/chemsearch/marvin/MolStructure.jsp?monomerid=50071404

> <Link to Ligand-Target Pair in BindingDB>
http://www.bindingdb.org/jsp/dbsearch/PrimarySearch_ki.jsp?energyterm=kJ/mole&tag=r21&monomerid=50071404&enzyme=Dihydroorotate+dehydrogenase&column=ki&startPg=0&Increment=50&submit=Search

> <PubChem CID>
44310351

> <PubChem SID>
103965158

$$$$

  Mrv2115 07222212352D          

 36 39  0  0  0  0            999 V2000
   -3.2083    2.1568    0.0000 C   0  0  0  0  0  0  0  0  0  0  0  0
   -2.7958    1.4423    0.0000 C   0  0  0  0  0  0  0  0  0  0  0  0
   -3.2083    0.7279    0.0000 O   0  0  0  0  0  0  0  0  0  0  0  0
   -2.7958    0.0134    0.0000 C   0  0  0  0  0  0  0  0  0  0  0  0
   -1.9708    0.0134    0.0000 C   0  0  0  0  0  0  0  0  0  0  0  0
   -1.5583   -0.7011    0.0000 C   0  0  0  0  0  0  0  0  0  0  0  0
   -0.7333   -0.7011    0.0000 N   0  0  0  0  0  0  0  0  0  0  0  0
   -0.2483   -1.3685    0.0000 N   0  0  0  0  0  0  0  0  0  0  0  0
    0.5363   -1.1136    0.0000 C   0  0  0  0  0  0  0  0  0  0  0  0
    0.5363   -0.2886    0.0000 N   0  0  0  0  0  0  0  0  0  0  0  0
   -0.2483   -0.0336    0.0000 C   0  0  0  0  0  0  0  0  0  0  0  0
   -0.5033    0.7510    0.0000 O   0  0  0  0  0  0  0  0  0  0  0  0
    1.1813    0.2258    0.0000 C   0  0  0  0  0  0  0  0  0  0  0  0
    1.9856    0.0422    0.0000 C   0  0  0  0  0  0  0  0  0  0  0  0
    2.3436   -0.7011    0.0000 C   0  0  0  0  0  0  0  0  0  0  0  0
    1.9856   -1.4444    0.0000 C   0  0  0  0  0  0  0  0  0  0  0  0
    1.1813   -1.6280    0.0000 C   0  0  0  0  0  0  0  0  0  0  0  0
   -1.9708   -1.4156    0.0000 C   0  0  0  0  0  0  0  0  0  0  0  0
   -1.5583   -2.1300    0.0000 F   0  0  0  0  0  0  0  0  0  0  0  0
   -2.7958   -1.4156    0.0000 C   0  0  0  0  0  0  0  0  0  0  0  0
   -3.2083   -0.7011    0.0000 C   0  0  0  0  0  0  0  0  0  0  0  0
   -4.0333   -0.7011    0.0000 C   0  0  0  0  0  0  0  0  0  0  0  0
   -4.4458    0.0134    0.0000 O   0  0  0  0  0  0  0  0  0  0  0  0
   -4.4458   -1.4156    0.0000 N   0  0  0  0  0  0  0  0  0  0  0  0
   -5.2708   -1.4156    0.0000 C   0  0  0  0  0  0  0  0  0  0  0  0
   -5.6833   -2.1300    0.0000 C   0  0  0  0  0  0  0  0  0  0  0  0
   -5.2708   -2.8445    0.0000 F   0  0  0  0  0  0  0  0  0  0  0  0
   -6.5083   -2.1300    0.0000 C   0  0  0  0  0  0  0  0  0  0  0  0
   -6.9208   -1.4156    0.0000 C   0  0  0  0  0  0  0  0  0  0  0  0
   -6.5083   -0.7011    0.0000 C   0  0  0  0  0  0  0  0  0  0  0  0
   -5.6833   -0.7011    0.0000 C   0  0  0  0  0  0  0  0  0  0  0  0
   -5.2708    0.0134    0.0000 F   0  0  0  0  0  0  0  0  0  0  0  0
   -1.9708    1.4423    0.0000 C   0  0  0  0  0  0  0  0  0  0  0  0
   -1.9708    0.6173    0.0000 F   0  0  0  0  0  0  0  0  0  0  0  0
   -1.9708    2.2673    0.0000 F   0  0  0  0  0  0  0  0  0  0  0  0
   -1.1458    1.4423    0.0000 F   0  0  0  0  0  0  0  0  0  0  0  0
  1  2  1  0  0  0  0
  2  3  1  0  0  0  0
  3  4  1  0  0  0  0
  4  5  4  0  0  0  0
  5  6  4  0  0  0  0
  6  7  1  0  0  0  0
  7  8  4  0  0  0  0
  8  9  4  0  0  0  0
  9 10  4  0  0  0  0
 10 11  4  0  0  0  0
  7 11  4  0  0  0  0
 11 12  2  0  0  0  0
 10 13  1  0  0  0  0
 13 14  1  0  0  0  0
 14 15  1  0  0  0  0
 15 16  1  0  0  0  0
 16 17  1  0  0  0  0
  9 17  1  0  0  0  0
  6 18  4  0  0  0  0
 18 19  1  0  0  0  0
 18 20  4  0  0  0  0
 20 21  4  0  0  0  0
  4 21  4  0  0  0  0
 21 22  1  0  0  0  0
 22 23  2  0  0  0  0
 22 24  1  0  0  0  0
 24 25  1  0  0  0  0
 25 26  4  0  0  0  0
 26 27  1  0  0  0  0
 26 28  4  0  0  0  0
 28 29  4  0  0  0  0
 29 30  4  0  0  0  0
 30 31  4  0  0  0  0
 25 31  4  0  0  0  0
 31 32  1  0  0  0  0
  2 33  1  0  0  0  0
 33 34  1  0  0  0  0
 33 35  1  0  0  0  0
 33 36  1  0  0  0  0
M  END
> <IC50(uM)>
0.015

> <Outcome>
1.0

> <BindingDB ID>
1020651

> <BindingDB MonomerID>
490580

> <BindingDB Ligand Name>
N-(2,6-difluorophenyl)-5-fluoro-4-(3-oxo-6,7,8,9-tetrahydro-3H-[1,2,4]triazolo[4,3-a]azepin-2(5H)-yl)-2-{[(2S)-1,1,1-trifluoropropan-2-yl]oxy}benzamide::US10968216, Example 248

> <Curation/DataSource>
US Patent

> <Article DOI>
?

> <PMID>
?

> <Patent Number>
US10968216

> <Authors>
Gradl, SN; Nguyen, D; Eis, K; Gunther, J; Stellfeld, T; Janzer, A; Christian, S; Mueller, T; Sheikh, SE; Zhou, HJ; Zhao, C; Sykes, DB; Ferrara, SJ; Liu, K; Herbert, SA; Merz, C; Niehues, M; Nising, CF; Schafer, M; Zimmermann, K; Knablein, J; Thede, K; Faupel, T

> <Link to Ligand in BindingDB>
http://www.bindingdb.org/bind/chemsearch/marvin/MolStructure.jsp?monomerid=490580

> <Link to Ligand-Target Pair in BindingDB>
http://www.bindingdb.org/jsp/dbsearch/PrimarySearch_ki.jsp?energyterm=kJ/mole&tag=r21&monomerid=490580&enzyme=Dihydroorotate+dehydrogenase&column=ki&startPg=0&Increment=50&submit=Search

> <PubChem CID>
134474435

> <PubChem SID>
447117306

$$$$

  Mrv2115 07222212352D          

 31 35  0  0  0  0            999 V2000
    2.1434   -2.8875    0.0000 C   0  0  0  0  0  0  0  0  0  0  0  0
    1.4289   -2.4750    0.0000 O   0  0  0  0  0  0  0  0  0  0  0  0
    1.4289   -1.6500    0.0000 C   0  0  0  0  0  0  0  0  0  0  0  0
    0.7145   -1.2375    0.0000 C   0  0  0  0  0  0  0  0  0  0  0  0
    0.7145   -0.4125    0.0000 C   0  0  0  0  0  0  0  0  0  0  0  0
    0.0000    0.0000    0.0000 C   0  0  0  0  0  0  0  0  0  0  0  0
   -0.7145   -0.4125    0.0000 O   0  0  0  0  0  0  0  0  0  0  0  0
    0.0000    0.8250    0.0000 N   0  0  0  0  0  0  0  0  0  0  0  0
   -0.7145    1.2375    0.0000 C   0  0  0  0  0  0  0  0  0  0  0  0
   -1.4289    0.8250    0.0000 C   0  0  0  0  0  0  0  0  0  0  0  0
   -2.1434    1.2375    0.0000 C   0  0  0  0  0  0  0  0  0  0  0  0
   -2.1434    2.0625    0.0000 C   0  0  0  0  0  0  0  0  0  0  0  0
   -1.4289    2.4750    0.0000 C   0  0  0  0  0  0  0  0  0  0  0  0
   -0.7145    2.0625    0.0000 C   0  0  0  0  0  0  0  0  0  0  0  0
   -0.1014    2.6145    0.0000 C   0  0  0  0  0  0  0  0  0  0  0  0
   -0.4369    3.3682    0.0000 N   0  0  0  0  0  0  0  0  0  0  0  0
   -1.2574    3.2820    0.0000 N   0  0  0  0  0  0  0  0  0  0  0  0
   -1.8094    3.8951    0.0000 C   0  0  0  0  0  0  0  0  0  0  0  0
   -2.6164    3.7235    0.0000 C   0  0  0  0  0  0  0  0  0  0  0  0
   -3.1685    4.3366    0.0000 C   0  0  0  0  0  0  0  0  0  0  0  0
   -2.9135    5.1213    0.0000 C   0  0  0  0  0  0  0  0  0  0  0  0
   -2.1065    5.2928    0.0000 C   0  0  0  0  0  0  0  0  0  0  0  0
   -1.5545    4.6797    0.0000 C   0  0  0  0  0  0  0  0  0  0  0  0
   -0.7475    4.8512    0.0000 F   0  0  0  0  0  0  0  0  0  0  0  0
    1.4289    0.0000    0.0000 N   0  0  0  0  0  0  0  0  0  0  0  0
    2.1434   -0.4125    0.0000 C   0  0  0  0  0  0  0  0  0  0  0  0
    2.8579    0.0000    0.0000 C   0  0  0  0  0  0  0  0  0  0  0  0
    3.5724   -0.4125    0.0000 C   0  0  0  0  0  0  0  0  0  0  0  0
    3.5724   -1.2375    0.0000 C   0  0  0  0  0  0  0  0  0  0  0  0
    2.8579   -1.6500    0.0000 C   0  0  0  0  0  0  0  0  0  0  0  0
    2.1434   -1.2375    0.0000 C   0  0  0  0  0  0  0  0  0  0  0  0
  1  2  1  0  0  0  0
  2  3  1  0  0  0  0
  3  4  4  0  0  0  0
  4  5  4  0  0  0  0
  5  6  1  0  0  0  0
  6  7  2  0  0  0  0
  6  8  1  0  0  0  0
  8  9  1  0  0  0  0
  9 10  1  0  0  0  0
 10 11  1  0  0  0  0
 11 12  1  0  0  0  0
 12 13  1  0  0  0  0
 13 14  4  0  0  0  0
  9 14  1  0  0  0  0
 14 15  4  0  0  0  0
 15 16  4  0  0  0  0
 16 17  4  0  0  0  0
 13 17  4  0  0  0  0
 17 18  1  0  0  0  0
 18 19  4  0  0  0  0
 19 20  4  0  0  0  0
 20 21  4  0  0  0  0
 21 22  4  0  0  0  0
 22 23  4  0  0  0  0
 18 23  4  0  0  0  0
 23 24  1  0  0  0  0
  5 25  4  0  0  0  0
 25 26  4  0  0  0  0
 26 27  4  0  0  0  0
 27 28  4  0  0  0  0
 28 29  4  0  0  0  0
 29 30  4  0  0  0  0
 30 31  4  0  0  0  0
  3 31  4  0  0  0  0
 26 31  4  0  0  0  0
M  END
> <IC50(uM)>
2.08

> <Outcome>
0.0

> <BindingDB ID>
993106

> <BindingDB MonomerID>
477608

> <BindingDB Ligand Name>
(R)??N-(1-(2-fluorophenyl)-4,5,6,7-tetrahydro-1H-indazol-4-yl)-4-methoxyquinoline-2-carboxamide::US10889564, Example 38

> <Curation/DataSource>
US Patent

> <Article DOI>
?

> <PMID>
?

> <Patent Number>
US10889564

> <Authors>
Lain, S; Drummond, C; Leeuwen, IV; Haraldsson, M; Johansson, L; Sandberg, L; Yngve, U

> <Link to Ligand in BindingDB>
http://www.bindingdb.org/bind/chemsearch/marvin/MolStructure.jsp?monomerid=477608

> <Link to Ligand-Target Pair in BindingDB>
http://www.bindingdb.org/jsp/dbsearch/PrimarySearch_ki.jsp?energyterm=kJ/mole&tag=r21&monomerid=477608&enzyme=Dihydroorotate+dehydrogenase&column=ki&startPg=0&Increment=50&submit=Search

> <PubChem CID>
129104739

> <PubChem SID>
442137225

$$$$

  Mrv2115 07222212352D          

 30 33  0  0  0  0            999 V2000
    0.7145   -2.8875    0.0000 C   0  0  0  0  0  0  0  0  0  0  0  0
    0.0000   -2.4750    0.0000 C   0  0  0  0  0  0  0  0  0  0  0  0
   -0.7145   -2.8875    0.0000 C   0  0  0  0  0  0  0  0  0  0  0  0
   -1.4289   -2.4750    0.0000 C   0  0  0  0  0  0  0  0  0  0  0  0
   -1.4289   -1.6500    0.0000 C   0  0  0  0  0  0  0  0  0  0  0  0
   -0.7145   -1.2375    0.0000 C   0  0  0  0  0  0  0  0  0  0  0  0
    0.0000   -1.6500    0.0000 C   0  0  0  0  0  0  0  0  0  0  0  0
    0.7145   -1.2375    0.0000 N   0  0  0  0  0  0  0  0  0  0  0  0
    0.7145   -0.4125    0.0000 C   0  0  0  0  0  0  0  0  0  0  0  0
    1.4289    0.0000    0.0000 C   0  0  0  0  0  0  0  0  0  0  0  0
    1.4289    0.8250    0.0000 C   0  0  0  0  0  0  0  0  0  0  0  0
    2.1434    1.2375    0.0000 C   0  0  0  0  0  0  0  0  0  0  0  0
    0.7145    1.2375    0.0000 C   0  0  0  0  0  0  0  0  0  0  0  0
    2.1434   -0.4125    0.0000 C   0  0  0  0  0  0  0  0  0  0  0  0
    2.8579    0.0000    0.0000 C   0  0  0  0  0  0  0  0  0  0  0  0
    3.5724   -0.4125    0.0000 C   0  0  0  0  0  0  0  0  0  0  0  0
    4.2868   -0.0000    0.0000 C   0  0  0  0  0  0  0  0  0  0  0  0
    4.3731    0.8205    0.0000 N   0  0  0  0  0  0  0  0  0  0  0  0
    5.1800    0.9920    0.0000 C   0  0  0  0  0  0  0  0  0  0  0  0
    5.5156    1.7457    0.0000 C   0  0  0  0  0  0  0  0  0  0  0  0
    5.0307    2.4131    0.0000 O   0  0  0  0  0  0  0  0  0  0  0  0
    5.5925    0.2775    0.0000 N   0  0  0  0  0  0  0  0  0  0  0  0
    6.4130    0.1913    0.0000 C   0  0  0  0  0  0  0  0  0  0  0  0
    5.0405   -0.3356    0.0000 N   0  0  0  0  0  0  0  0  0  0  0  0
    3.5724   -1.2375    0.0000 C   0  0  0  0  0  0  0  0  0  0  0  0
    4.2868   -1.6500    0.0000 F   0  0  0  0  0  0  0  0  0  0  0  0
    2.8579   -1.6500    0.0000 C   0  0  0  0  0  0  0  0  0  0  0  0
    2.1434   -1.2375    0.0000 C   0  0  0  0  0  0  0  0  0  0  0  0
    1.4289   -1.6500    0.0000 C   0  0  0  0  0  0  0  0  0  0  0  0
    1.4289   -2.4750    0.0000 O   0  0  0  0  0  0  0  0  0  0  0  0
  1  2  1  0  0  0  0
  2  3  4  0  0  0  0
  3  4  4  0  0  0  0
  4  5  4  0  0  0  0
  5  6  4  0  0  0  0
  6  7  4  0  0  0  0
  2  7  4  0  0  0  0
  7  8  1  0  0  0  0
  8  9  4  0  0  0  0
  9 10  4  0  0  0  0
 10 11  1  0  0  0  0
 11 12  1  0  0  0  0
 11 13  1  0  0  0  0
 10 14  4  0  0  0  0
 14 15  4  0  0  0  0
 15 16  4  0  0  0  0
 16 17  1  0  0  0  0
 17 18  4  0  0  0  0
 18 19  4  0  0  0  0
 19 20  1  0  0  0  0
 20 21  1  0  0  0  0
 19 22  4  0  0  0  0
 22 23  1  0  0  0  0
 22 24  4  0  0  0  0
 17 24  4  0  0  0  0
 16 25  4  0  0  0  0
 25 26  1  0  0  0  0
 25 27  4  0  0  0  0
 27 28  4  0  0  0  0
 14 28  4  0  0  0  0
 28 29  4  0  0  0  0
  8 29  4  0  0  0  0
 29 30  2  0  0  0  0
M  END
> <IC50(uM)>
0.0026

> <Outcome>
1.0

> <BindingDB ID>
1121371

> <BindingDB MonomerID>
530437

> <BindingDB Ligand Name>
7-Fluoro-6-(5-(hydroxymethyl)-1-methyl-1H-1,2,4-triazol-3-yl)-4-isopropyl-2-(o- tolyl)isoquinolin-1(2H)-one.::WO2022070068, Example 9

> <Curation/DataSource>
Curated from the literature by BindingDB

> <Article DOI>
?

> <PMID>
WO2022070068

> <Patent Number>
?

> <Authors>
Lindsey, D; Scott, K; Zhuming, Z

> <Link to Ligand in BindingDB>
http://www.bindingdb.org/bind/chemsearch/marvin/MolStructure.jsp?monomerid=530437

> <Link to Ligand-Target Pair in BindingDB>
http://www.bindingdb.org/jsp/dbsearch/PrimarySearch_ki.jsp?energyterm=kJ/mole&tag=r21&monomerid=530437&enzyme=Dihydroorotate+dehydrogenase&column=ki&startPg=0&Increment=50&submit=Search

> <PubChem CID>
?

> <PubChem SID>
?

$$$$

  Mrv2115 07222212352D          

 21 22  0  0  0  0            999 V2000
    0.0000   -1.6500    0.0000 C   0  0  0  0  0  0  0  0  0  0  0  0
    0.0000   -2.4750    0.0000 C   0  0  0  0  0  0  0  0  0  0  0  0
    0.7145   -2.8875    0.0000 C   0  0  0  0  0  0  0  0  0  0  0  0
    1.4289   -2.4750    0.0000 C   0  0  0  0  0  0  0  0  0  0  0  0
    1.4289   -1.6500    0.0000 O   0  0  0  0  0  0  0  0  0  0  0  0
    2.1434   -2.8875    0.0000 N   0  0  0  0  0  0  0  0  0  0  0  0
    2.8579   -2.4750    0.0000 C   0  0  0  0  0  0  0  0  0  0  0  0
    2.8579   -1.6500    0.0000 C   0  0  0  0  0  0  0  0  0  0  0  0
    3.5724   -1.2375    0.0000 C   0  0  0  0  0  0  0  0  0  0  0  0
    3.5724   -0.4125    0.0000 Cl  0  0  0  0  0  0  0  0  0  0  0  0
    4.2868   -1.6500    0.0000 C   0  0  0  0  0  0  0  0  0  0  0  0
    4.2868   -2.4750    0.0000 C   0  0  0  0  0  0  0  0  0  0  0  0
    5.0013   -2.8875    0.0000 Cl  0  0  0  0  0  0  0  0  0  0  0  0
    3.5724   -2.8875    0.0000 C   0  0  0  0  0  0  0  0  0  0  0  0
    0.7145   -3.7125    0.0000 C   0  0  0  0  0  0  0  0  0  0  0  0
    0.0000   -4.1250    0.0000 C   0  0  0  0  0  0  0  0  0  0  0  0
   -0.7145   -3.7125    0.0000 C   0  0  0  0  0  0  0  0  0  0  0  0
   -0.7145   -2.8875    0.0000 C   0  0  0  0  0  0  0  0  0  0  0  0
   -1.4289   -2.4750    0.0000 N   0  3  0  0  0  0  0  0  0  0  0  0
   -2.1434   -2.8875    0.0000 O   0  0  0  0  0  0  0  0  0  0  0  0
   -1.4289   -1.6500    0.0000 O   0  5  0  0  0  0  0  0  0  0  0  0
  1  2  1  0  0  0  0
  2  3  4  0  0  0  0
  3  4  1  0  0  0  0
  4  5  2  0  0  0  0
  4  6  1  0  0  0  0
  6  7  1  0  0  0  0
  7  8  4  0  0  0  0
  8  9  4  0  0  0  0
  9 10  1  0  0  0  0
  9 11  4  0  0  0  0
 11 12  4  0  0  0  0
 12 13  1  0  0  0  0
 12 14  4  0  0  0  0
  7 14  4  0  0  0  0
  3 15  4  0  0  0  0
 15 16  4  0  0  0  0
 16 17  4  0  0  0  0
 17 18  4  0  0  0  0
  2 18  4  0  0  0  0
 18 19  1  0  0  0  0
 19 20  2  0  0  0  0
 19 21  1  0  0  0  0
M  CHG  2  19   1  21  -1
M  END
> <IC50(uM)>
362.2

> <Outcome>
0.0

> <BindingDB ID>
28099; 26839

> <BindingDB MonomerID>
14711

> <BindingDB Ligand Name>
Asinex compound no. 6::N-(3,5-Dichlorophenyl)-2-methyl-3-nitrobenzamide::benzamide compound 3

> <Curation/DataSource>
Curated from the literature by BindingDB

> <Article DOI>
10.1074/jbc.M501100200; 10.1021/jm060687j

> <PMID>
15795226; 17228860

> <Patent Number>
?

> <Authors>
Baldwin, J; Michnoff, CH; Malmquist, NA; White, J; Roth, MG; Rathod, PK; Phillips, MA; Heikkila, T; Ramsey, C; Davies, M; Galtier, C; Stead, AM; Johnson, AP; Fishwick, CW; Boa, AN; McConkey, GA

> <Link to Ligand in BindingDB>
http://www.bindingdb.org/bind/chemsearch/marvin/MolStructure.jsp?monomerid=14711

> <Link to Ligand-Target Pair in BindingDB>
http://www.bindingdb.org/jsp/dbsearch/PrimarySearch_ki.jsp?energyterm=kJ/mole&tag=r21&monomerid=14711&enzyme=Dihydroorotate+Dehydrogenase+%28DHODH%29&column=ki&startPg=0&Increment=50&submit=Search; http://www.bindingdb.org/jsp/dbsearch/PrimarySearch_ki.jsp?energyterm=kJ/mole&tag=r21&monomerid=14711&enzyme=Dihydroorotate+dehydrogenase&column=ki&startPg=0&Increment=50&submit=Search

> <PubChem CID>
799096

> <PubChem SID>
46515041

$$$$

  Mrv2115 07222212352D          

 33 35  0  0  0  0            999 V2000
    0.7145   -3.7125    0.0000 C   0  0  0  0  0  0  0  0  0  0  0  0
    1.4289   -4.1250    0.0000 C   0  0  0  0  0  0  0  0  0  0  0  0
    2.1434   -3.7125    0.0000 C   0  0  0  0  0  0  0  0  0  0  0  0
    2.8579   -4.1250    0.0000 C   0  0  0  0  0  0  0  0  0  0  0  0
    2.8579   -4.9500    0.0000 C   0  0  0  0  0  0  0  0  0  0  0  0
    3.5724   -3.7125    0.0000 O   0  0  0  0  0  0  0  0  0  0  0  0
    3.5724   -2.8875    0.0000 C   0  0  0  0  0  0  0  0  0  0  0  0
    2.8579   -2.4750    0.0000 C   0  0  0  0  0  0  0  0  0  0  0  0
    2.8579   -1.6500    0.0000 C   0  0  0  0  0  0  0  0  0  0  0  0
    2.1434   -1.2375    0.0000 N   0  0  0  0  0  0  0  0  0  0  0  0
    1.3897   -1.5731    0.0000 N   0  0  0  0  0  0  0  0  0  0  0  0
    0.8377   -0.9600    0.0000 C   0  0  0  0  0  0  0  0  0  0  0  0
    0.0172   -1.0462    0.0000 C   0  0  0  0  0  0  0  0  0  0  0  0
   -0.3183   -1.7999    0.0000 C   0  0  0  0  0  0  0  0  0  0  0  0
    1.2502   -0.2455    0.0000 N   0  0  0  0  0  0  0  0  0  0  0  0
    0.9146    0.5082    0.0000 C   0  0  0  0  0  0  0  0  0  0  0  0
    2.0572   -0.4170    0.0000 C   0  0  0  0  0  0  0  0  0  0  0  0
    2.6703    0.1350    0.0000 O   0  0  0  0  0  0  0  0  0  0  0  0
    3.5724   -1.2375    0.0000 C   0  0  0  0  0  0  0  0  0  0  0  0
    3.5724   -0.4125    0.0000 F   0  0  0  0  0  0  0  0  0  0  0  0
    4.2868   -1.6500    0.0000 C   0  0  0  0  0  0  0  0  0  0  0  0
    4.2868   -2.4750    0.0000 C   0  0  0  0  0  0  0  0  0  0  0  0
    5.0013   -2.8875    0.0000 C   0  0  0  0  0  0  0  0  0  0  0  0
    5.7158   -2.4750    0.0000 O   0  0  0  0  0  0  0  0  0  0  0  0
    5.0013   -3.7125    0.0000 N   0  0  0  0  0  0  0  0  0  0  0  0
    5.7158   -4.1250    0.0000 C   0  0  0  0  0  0  0  0  0  0  0  0
    6.4302   -3.7125    0.0000 C   0  0  0  0  0  0  0  0  0  0  0  0
    7.1447   -4.1250    0.0000 C   0  0  0  0  0  0  0  0  0  0  0  0
    7.1447   -4.9500    0.0000 C   0  0  0  0  0  0  0  0  0  0  0  0
    6.4302   -5.3625    0.0000 C   0  0  0  0  0  0  0  0  0  0  0  0
    6.4302   -6.1875    0.0000 O   0  0  0  0  0  0  0  0  0  0  0  0
    7.1447   -6.6000    0.0000 C   0  0  0  0  0  0  0  0  0  0  0  0
    5.7158   -4.9500    0.0000 C   0  0  0  0  0  0  0  0  0  0  0  0
  1  2  1  0  0  0  0
  2  3  1  0  0  0  0
  3  4  1  0  0  0  0
  4  5  1  0  0  0  0
  4  6  1  0  0  0  0
  6  7  1  0  0  0  0
  7  8  4  0  0  0  0
  8  9  4  0  0  0  0
  9 10  1  0  0  0  0
 10 11  4  0  0  0  0
 11 12  4  0  0  0  0
 12 13  1  0  0  0  0
 13 14  1  0  0  0  0
 12 15  4  0  0  0  0
 15 16  1  0  0  0  0
 15 17  4  0  0  0  0
 10 17  4  0  0  0  0
 17 18  2  0  0  0  0
  9 19  4  0  0  0  0
 19 20  1  0  0  0  0
 19 21  4  0  0  0  0
 21 22  4  0  0  0  0
  7 22  4  0  0  0  0
 22 23  1  0  0  0  0
 23 24  2  0  0  0  0
 23 25  1  0  0  0  0
 25 26  1  0  0  0  0
 26 27  4  0  0  0  0
 27 28  4  0  0  0  0
 28 29  4  0  0  0  0
 29 30  4  0  0  0  0
 30 31  1  0  0  0  0
 31 32  1  0  0  0  0
 30 33  4  0  0  0  0
 26 33  4  0  0  0  0
M  END
> <IC50(uM)>
0.289

> <Outcome>
1.0

> <BindingDB ID>
1098646; 972492; 1098647; 972493

> <BindingDB MonomerID>
470376

> <BindingDB Ligand Name>
4-(3-ethyl-4-methyl-5-oxo-4,5-dihydro-1H-1,2,4-triazol-1-yl)-5-fluoro-N-(3-methoxyphenyl)-2-[(2S)-pentan-2-yloxy]benzamide::US10815215, Example 35::US11130745, Example 35; 4-(3-ethyl-4-methyl-5-oxo-4,5-dihydro-1H-1,2,4-triazol-1-yl)-5-fluoro-N-(3-methoxyphenyl)-2-[(2S)-pentan-2-yloxy]benzamide::US10815215, Example 35

> <Curation/DataSource>
US Patent

> <Article DOI>
?

> <PMID>
?

> <Patent Number>
US11130745; US10815215

> <Authors>
Gradl, SN; Nguyen, D; Eis, K; Gunther, J; Stellfeld, T; Janzer, A; Christian, S; Muller, T; Sheikh, SE; Sykes, DB; Ferrara, SJ; Krober, M; Merz, C; Niehues, M; Schafer, M; Zimmermann, K; Nising, CF; Gradl, SN; Nguyen, D; Eis, K; Gunther, J; Stellfeld, T; Janzer, A; Christian, S; Muller, T; Sheikh, SE; Zhou, HJ; Zhao, C; Sykes, DB; Ferrara, SJ; Liu, K; Krober, M; Merz, C; Niehues, M; Schafer, M; Zimmermann, K; Nising, CF

> <Link to Ligand in BindingDB>
http://www.bindingdb.org/bind/chemsearch/marvin/MolStructure.jsp?monomerid=470376

> <Link to Ligand-Target Pair in BindingDB>
http://www.bindingdb.org/jsp/dbsearch/PrimarySearch_ki.jsp?energyterm=kJ/mole&tag=r21&monomerid=470376&enzyme=Dihydroorotate+dehydrogenase&column=ki&startPg=0&Increment=50&submit=Search

> <PubChem CID>
134470261

> <PubChem SID>
441609553

$$$$

  Mrv2115 07222212352D          

 35 38  0  0  0  0            999 V2000
   -1.8212    2.1599    0.0000 C   0  0  0  0  0  0  0  0  0  0  0  0
   -1.4087    1.4455    0.0000 C   0  0  0  0  0  0  0  0  0  0  0  0
   -1.8212    0.7310    0.0000 O   0  0  0  0  0  0  0  0  0  0  0  0
   -1.4087    0.0165    0.0000 C   0  0  0  0  0  0  0  0  0  0  0  0
   -0.5837    0.0165    0.0000 C   0  0  0  0  0  0  0  0  0  0  0  0
   -0.1712   -0.6979    0.0000 C   0  0  0  0  0  0  0  0  0  0  0  0
    0.6538   -0.6979    0.0000 N   0  0  0  0  0  0  0  0  0  0  0  0
    1.1387   -0.0305    0.0000 N   0  0  0  0  0  0  0  0  0  0  0  0
    1.9233   -0.2854    0.0000 C   0  0  0  0  0  0  0  0  0  0  0  0
    2.6378    0.1271    0.0000 C   0  0  0  0  0  0  0  0  0  0  0  0
    3.3523   -0.2854    0.0000 C   0  0  0  0  0  0  0  0  0  0  0  0
    3.3523   -1.1104    0.0000 C   0  0  0  0  0  0  0  0  0  0  0  0
    2.6378   -1.5229    0.0000 C   0  0  0  0  0  0  0  0  0  0  0  0
    1.9233   -1.1104    0.0000 N   0  0  0  0  0  0  0  0  0  0  0  0
    1.1387   -1.3654    0.0000 C   0  0  0  0  0  0  0  0  0  0  0  0
    0.8838   -2.1500    0.0000 O   0  0  0  0  0  0  0  0  0  0  0  0
   -0.5837   -1.4124    0.0000 C   0  0  0  0  0  0  0  0  0  0  0  0
   -0.1712   -2.1269    0.0000 F   0  0  0  0  0  0  0  0  0  0  0  0
   -1.4087   -1.4124    0.0000 C   0  0  0  0  0  0  0  0  0  0  0  0
   -1.8212   -0.6979    0.0000 C   0  0  0  0  0  0  0  0  0  0  0  0
   -2.6462   -0.6979    0.0000 C   0  0  0  0  0  0  0  0  0  0  0  0
   -3.0587    0.0165    0.0000 O   0  0  0  0  0  0  0  0  0  0  0  0
   -3.0587   -1.4124    0.0000 N   0  0  0  0  0  0  0  0  0  0  0  0
   -3.8837   -1.4124    0.0000 C   0  0  0  0  0  0  0  0  0  0  0  0
   -4.2962   -2.1269    0.0000 C   0  0  0  0  0  0  0  0  0  0  0  0
   -3.8837   -2.8414    0.0000 F   0  0  0  0  0  0  0  0  0  0  0  0
   -5.1212   -2.1269    0.0000 C   0  0  0  0  0  0  0  0  0  0  0  0
   -5.5337   -1.4124    0.0000 C   0  0  0  0  0  0  0  0  0  0  0  0
   -5.1212   -0.6979    0.0000 C   0  0  0  0  0  0  0  0  0  0  0  0
   -4.2962   -0.6979    0.0000 C   0  0  0  0  0  0  0  0  0  0  0  0
   -3.8837    0.0165    0.0000 F   0  0  0  0  0  0  0  0  0  0  0  0
   -0.5837    1.4455    0.0000 C   0  0  0  0  0  0  0  0  0  0  0  0
   -0.5837    0.6205    0.0000 F   0  0  0  0  0  0  0  0  0  0  0  0
   -0.5837    2.2705    0.0000 F   0  0  0  0  0  0  0  0  0  0  0  0
    0.2413    1.4455    0.0000 F   0  0  0  0  0  0  0  0  0  0  0  0
  1  2  1  0  0  0  0
  2  3  1  0  0  0  0
  3  4  1  0  0  0  0
  4  5  4  0  0  0  0
  5  6  4  0  0  0  0
  6  7  1  0  0  0  0
  7  8  4  0  0  0  0
  8  9  4  0  0  0  0
  9 10  4  0  0  0  0
 10 11  4  0  0  0  0
 11 12  4  0  0  0  0
 12 13  4  0  0  0  0
 13 14  4  0  0  0  0
  9 14  4  0  0  0  0
 14 15  4  0  0  0  0
  7 15  4  0  0  0  0
 15 16  2  0  0  0  0
  6 17  4  0  0  0  0
 17 18  1  0  0  0  0
 17 19  4  0  0  0  0
 19 20  4  0  0  0  0
  4 20  4  0  0  0  0
 20 21  1  0  0  0  0
 21 22  2  0  0  0  0
 21 23  1  0  0  0  0
 23 24  1  0  0  0  0
 24 25  4  0  0  0  0
 25 26  1  0  0  0  0
 25 27  4  0  0  0  0
 27 28  4  0  0  0  0
 28 29  4  0  0  0  0
 29 30  4  0  0  0  0
 24 30  4  0  0  0  0
 30 31  1  0  0  0  0
  2 32  1  0  0  0  0
 32 33  1  0  0  0  0
 32 34  1  0  0  0  0
 32 35  1  0  0  0  0
M  END
> <IC50(uM)>
0.061

> <Outcome>
1.0

> <BindingDB ID>
1020608

> <BindingDB MonomerID>
490547

> <BindingDB Ligand Name>
N-(2,6-difluorophenyl)-5-fluoro-4-(3-oxo-5,6-dihydro-3H-[1,2,4]triazolo[3,4-c][1,4]oxazin-2(8H)-yl)-2-[(2S)-pentan-2-yloxy]benzamide::US10968216, Example 215

> <Curation/DataSource>
US Patent

> <Article DOI>
?

> <PMID>
?

> <Patent Number>
US10968216

> <Authors>
Gradl, SN; Nguyen, D; Eis, K; Gunther, J; Stellfeld, T; Janzer, A; Christian, S; Mueller, T; Sheikh, SE; Zhou, HJ; Zhao, C; Sykes, DB; Ferrara, SJ; Liu, K; Herbert, SA; Merz, C; Niehues, M; Nising, CF; Schafer, M; Zimmermann, K; Knablein, J; Thede, K; Faupel, T

> <Link to Ligand in BindingDB>
http://www.bindingdb.org/bind/chemsearch/marvin/MolStructure.jsp?monomerid=490547

> <Link to Ligand-Target Pair in BindingDB>
http://www.bindingdb.org/jsp/dbsearch/PrimarySearch_ki.jsp?energyterm=kJ/mole&tag=r21&monomerid=490547&enzyme=Dihydroorotate+dehydrogenase&column=ki&startPg=0&Increment=50&submit=Search

> <PubChem CID>
134474177

> <PubChem SID>
447117273

$$$$

  Mrv2115 07222212352D          

 26 28  0  0  0  0            999 V2000
   -0.7145   -3.7125    0.0000 C   0  0  0  0  0  0  0  0  0  0  0  0
   -0.7145   -2.8875    0.0000 O   0  0  0  0  0  0  0  0  0  0  0  0
    0.0000   -2.4750    0.0000 C   0  0  0  0  0  0  0  0  0  0  0  0
    0.0000   -1.6500    0.0000 C   0  0  0  0  0  0  0  0  0  0  0  0
    0.7145   -1.2375    0.0000 C   0  0  0  0  0  0  0  0  0  0  0  0
    0.7145   -0.4125    0.0000 C   0  0  0  0  0  0  0  0  0  0  0  0
    0.0000    0.0000    0.0000 C   0  0  0  0  0  0  0  0  0  0  0  0
    0.0000    0.8250    0.0000 C   0  0  0  0  0  0  0  0  0  0  0  0
    0.7145    1.2375    0.0000 C   0  0  0  0  0  0  0  0  0  0  0  0
    1.4289    0.8250    0.0000 C   0  0  0  0  0  0  0  0  0  0  0  0
    1.4289    0.0000    0.0000 C   0  0  0  0  0  0  0  0  0  0  0  0
    2.1434   -0.4125    0.0000 Cl  0  0  0  0  0  0  0  0  0  0  0  0
    1.4289   -1.6500    0.0000 C   0  0  0  0  0  0  0  0  0  0  0  0
    1.4289   -2.4750    0.0000 C   0  0  0  0  0  0  0  0  0  0  0  0
    0.7145   -2.8875    0.0000 C   0  0  0  0  0  0  0  0  0  0  0  0
    0.7145   -3.7125    0.0000 N   0  0  0  0  0  0  0  0  0  0  0  0
    1.4289   -4.1250    0.0000 C   0  0  0  0  0  0  0  0  0  0  0  0
    2.1434   -3.7125    0.0000 O   0  0  0  0  0  0  0  0  0  0  0  0
    1.4289   -4.9500    0.0000 C   0  0  0  0  0  0  0  0  0  0  0  0
    2.0964   -5.4349    0.0000 C   0  0  0  0  0  0  0  0  0  0  0  0
    2.8810   -5.1800    0.0000 C   0  0  0  0  0  0  0  0  0  0  0  0
    3.0525   -4.3730    0.0000 O   0  0  0  0  0  0  0  0  0  0  0  0
    3.4941   -5.7320    0.0000 O   0  0  0  0  0  0  0  0  0  0  0  0
    1.8414   -6.2195    0.0000 C   0  0  0  0  0  0  0  0  0  0  0  0
    1.0164   -6.2195    0.0000 C   0  0  0  0  0  0  0  0  0  0  0  0
    0.7615   -5.4349    0.0000 C   0  0  0  0  0  0  0  0  0  0  0  0
  1  2  1  0  0  0  0
  2  3  1  0  0  0  0
  3  4  4  0  0  0  0
  4  5  4  0  0  0  0
  5  6  1  0  0  0  0
  6  7  4  0  0  0  0
  7  8  4  0  0  0  0
  8  9  4  0  0  0  0
  9 10  4  0  0  0  0
 10 11  4  0  0  0  0
  6 11  4  0  0  0  0
 11 12  1  0  0  0  0
  5 13  4  0  0  0  0
 13 14  4  0  0  0  0
 14 15  4  0  0  0  0
  3 15  4  0  0  0  0
 15 16  1  0  0  0  0
 16 17  1  0  0  0  0
 17 18  2  0  0  0  0
 17 19  1  0  0  0  0
 19 20  2  0  0  0  0
 20 21  1  0  0  0  0
 21 22  2  0  0  0  0
 21 23  1  0  0  0  0
 20 24  1  0  0  0  0
 24 25  1  0  0  0  0
 25 26  1  0  0  0  0
 19 26  1  0  0  0  0
M  END
> <IC50(uM)>
0.225

> <Outcome>
1.0

> <BindingDB ID>
50251715

> <BindingDB MonomerID>
50137298

> <BindingDB Ligand Name>
2-(2'-Chloro-3-methoxy-biphenyl-4-ylcarbamoyl)-cyclopent-1-enecarboxylic acid::CHEMBL155732

> <Curation/DataSource>
ChEMBL

> <Article DOI>
10.1016/j.bmcl.2003.10.021

> <PMID>
14684297

> <Patent Number>
?

> <Authors>
Leban, J; Saeb, W; Garcia, G; Baumgartner, R; Kramer, B

> <Link to Ligand in BindingDB>
http://www.bindingdb.org/bind/chemsearch/marvin/MolStructure.jsp?monomerid=50137298

> <Link to Ligand-Target Pair in BindingDB>
http://www.bindingdb.org/jsp/dbsearch/PrimarySearch_ki.jsp?energyterm=kJ/mole&tag=r21&monomerid=50137298&enzyme=Dihydroorotate+dehydrogenase&column=ki&startPg=0&Increment=50&submit=Search

> <PubChem CID>
21084690

> <PubChem SID>
104027464

$$$$

  Mrv2115 07222212352D          

 28 30  0  0  0  0            999 V2000
    4.0668    2.3479    0.0000 C   0  0  0  0  0  0  0  0  0  0  0  0
    3.3523    1.9354    0.0000 C   0  0  0  0  0  0  0  0  0  0  0  0
    3.3523    1.1104    0.0000 C   0  0  0  0  0  0  0  0  0  0  0  0
    2.6378    0.6979    0.0000 C   0  0  0  0  0  0  0  0  0  0  0  0
    2.6378   -0.1271    0.0000 N   0  0  0  0  0  0  0  0  0  0  0  0
    3.3523   -0.5396    0.0000 C   0  0  0  0  0  0  0  0  0  0  0  0
    4.0668   -0.1271    0.0000 C   0  0  0  0  0  0  0  0  0  0  0  0
    4.7812   -0.5396    0.0000 C   0  0  0  0  0  0  0  0  0  0  0  0
    4.7812   -1.3646    0.0000 C   0  0  0  0  0  0  0  0  0  0  0  0
    5.4957   -1.7771    0.0000 S   0  0  0  0  0  0  0  0  0  0  0  0
    6.2102   -2.1896    0.0000 F   0  0  0  0  0  0  0  0  0  0  0  0
    4.7812   -2.1896    0.0000 F   0  0  0  0  0  0  0  0  0  0  0  0
    5.4957   -2.6021    0.0000 F   0  0  0  0  0  0  0  0  0  0  0  0
    6.2102   -1.3646    0.0000 F   0  0  0  0  0  0  0  0  0  0  0  0
    5.4957   -0.9521    0.0000 F   0  0  0  0  0  0  0  0  0  0  0  0
    4.0668   -1.7771    0.0000 C   0  0  0  0  0  0  0  0  0  0  0  0
    4.0668   -2.6021    0.0000 F   0  0  0  0  0  0  0  0  0  0  0  0
    3.3523   -1.3646    0.0000 C   0  0  0  0  0  0  0  0  0  0  0  0
    1.9233    1.1104    0.0000 N   0  0  0  0  0  0  0  0  0  0  0  0
    1.1387    0.8555    0.0000 N   0  0  0  0  0  0  0  0  0  0  0  0
    0.6538    1.5229    0.0000 C   0  0  0  0  0  0  0  0  0  0  0  0
   -0.1712    1.5229    0.0000 C   0  0  0  0  0  0  0  0  0  0  0  0
   -0.9962    1.5229    0.0000 C   0  0  0  0  0  0  0  0  0  0  0  0
   -0.1712    2.3479    0.0000 F   0  0  0  0  0  0  0  0  0  0  0  0
   -0.1712    0.6979    0.0000 F   0  0  0  0  0  0  0  0  0  0  0  0
    1.1387    2.1904    0.0000 N   0  0  0  0  0  0  0  0  0  0  0  0
    1.9233    1.9354    0.0000 C   0  0  0  0  0  0  0  0  0  0  0  0
    2.6378    2.3479    0.0000 N   0  0  0  0  0  0  0  0  0  0  0  0
  1  2  1  0  0  0  0
  2  3  4  0  0  0  0
  3  4  4  0  0  0  0
  4  5  1  0  0  0  0
  5  6  1  0  0  0  0
  6  7  4  0  0  0  0
  7  8  4  0  0  0  0
  8  9  4  0  0  0  0
  9 10  1  0  0  0  0
 10 11  1  0  0  0  0
 10 12  1  0  0  0  0
 10 13  1  0  0  0  0
 10 14  1  0  0  0  0
 10 15  1  0  0  0  0
  9 16  4  0  0  0  0
 16 17  1  0  0  0  0
 16 18  4  0  0  0  0
  6 18  4  0  0  0  0
  4 19  4  0  0  0  0
 19 20  4  0  0  0  0
 20 21  4  0  0  0  0
 21 22  1  0  0  0  0
 22 23  1  0  0  0  0
 22 24  1  0  0  0  0
 22 25  1  0  0  0  0
 21 26  4  0  0  0  0
 26 27  4  0  0  0  0
 19 27  4  0  0  0  0
 27 28  4  0  0  0  0
  2 28  4  0  0  0  0
M  END
> <IC50(uM)>
3.7

> <Outcome>
0.0

> <BindingDB ID>
51272397

> <BindingDB MonomerID>
50519564

> <BindingDB Ligand Name>
CHEMBL4545127

> <Curation/DataSource>
ChEMBL

> <Article DOI>
10.1021/acs.jmedchem.9b00761

> <PMID>
31385706

> <Patent Number>
?

> <Authors>
Ashton, TD; Devine, SM; M??hrle, JJ; Laleu, B; Burrows, JN; Charman, SA; Creek, DJ; Sleebs, BE

> <Link to Ligand in BindingDB>
http://www.bindingdb.org/bind/chemsearch/marvin/MolStructure.jsp?monomerid=50519564

> <Link to Ligand-Target Pair in BindingDB>
http://www.bindingdb.org/jsp/dbsearch/PrimarySearch_ki.jsp?energyterm=kJ/mole&tag=r21&monomerid=50519564&enzyme=Dihydroorotate+dehydrogenase&column=ki&startPg=0&Increment=50&submit=Search

> <PubChem CID>
155553026

> <PubChem SID>
440728146

$$$$

  Mrv2115 07222212352D          

 34 36  0  0  0  0            999 V2000
   -1.4289    8.0036    0.0000 C   0  0  0  0  0  0  0  0  0  0  0  0
   -0.7145    8.4161    0.0000 C   0  0  0  0  0  0  0  0  0  0  0  0
   -0.7145    9.2411    0.0000 C   0  0  0  0  0  0  0  0  0  0  0  0
   -0.0000    9.6536    0.0000 C   0  0  0  0  0  0  0  0  0  0  0  0
    0.7145    9.2411    0.0000 C   0  0  0  0  0  0  0  0  0  0  0  0
    0.7145    8.4161    0.0000 C   0  0  0  0  0  0  0  0  0  0  0  0
   -0.0000    8.0036    0.0000 C   0  0  0  0  0  0  0  0  0  0  0  0
   -0.0000    7.1786    0.0000 N   0  0  0  0  0  0  0  0  0  0  0  0
    0.7145    6.7661    0.0000 C   0  0  0  0  0  0  0  0  0  0  0  0
    1.4289    7.1786    0.0000 O   0  0  0  0  0  0  0  0  0  0  0  0
    0.7145    5.9411    0.0000 C   0  0  0  0  0  0  0  0  0  0  0  0
    1.4289    5.5286    0.0000 C   0  0  0  0  0  0  0  0  0  0  0  0
    1.4289    4.7036    0.0000 C   0  0  0  0  0  0  0  0  0  0  0  0
    2.1434    4.2911    0.0000 F   0  0  0  0  0  0  0  0  0  0  0  0
    0.7145    4.2911    0.0000 C   0  0  0  0  0  0  0  0  0  0  0  0
    0.7145    3.4661    0.0000 N   0  0  0  0  0  0  0  0  0  0  0  0
    0.0470    2.9812    0.0000 N   0  0  0  0  0  0  0  0  0  0  0  0
    0.3020    2.1965    0.0000 C   0  0  0  0  0  0  0  0  0  0  0  0
   -0.1830    1.5291    0.0000 C   0  0  0  0  0  0  0  0  0  0  0  0
    0.1526    0.7754    0.0000 C   0  0  0  0  0  0  0  0  0  0  0  0
   -1.0034    1.6153    0.0000 O   0  0  0  0  0  0  0  0  0  0  0  0
    1.1270    2.1965    0.0000 N   0  0  0  0  0  0  0  0  0  0  0  0
    1.6119    1.5291    0.0000 C   0  0  0  0  0  0  0  0  0  0  0  0
    1.3819    2.9812    0.0000 C   0  0  0  0  0  0  0  0  0  0  0  0
    2.1665    3.2361    0.0000 O   0  0  0  0  0  0  0  0  0  0  0  0
    0.0000    4.7036    0.0000 C   0  0  0  0  0  0  0  0  0  0  0  0
   -0.0000    5.5286    0.0000 C   0  0  0  0  0  0  0  0  0  0  0  0
   -0.7145    5.9411    0.0000 O   0  0  0  0  0  0  0  0  0  0  0  0
   -1.4289    5.5286    0.0000 C   0  0  0  0  0  0  0  0  0  0  0  0
   -1.4289    4.7036    0.0000 C   0  0  0  0  0  0  0  0  0  0  0  0
   -2.1434    5.9411    0.0000 C   0  0  0  0  0  0  0  0  0  0  0  0
   -1.7309    6.6555    0.0000 F   0  0  0  0  0  0  0  0  0  0  0  0
   -2.5559    5.2266    0.0000 F   0  0  0  0  0  0  0  0  0  0  0  0
   -2.8579    6.3536    0.0000 F   0  0  0  0  0  0  0  0  0  0  0  0
  1  2  1  0  0  0  0
  2  3  4  0  0  0  0
  3  4  4  0  0  0  0
  4  5  4  0  0  0  0
  5  6  4  0  0  0  0
  6  7  4  0  0  0  0
  2  7  4  0  0  0  0
  7  8  1  0  0  0  0
  8  9  1  0  0  0  0
  9 10  2  0  0  0  0
  9 11  1  0  0  0  0
 11 12  4  0  0  0  0
 12 13  4  0  0  0  0
 13 14  1  0  0  0  0
 13 15  4  0  0  0  0
 15 16  1  0  0  0  0
 16 17  4  0  0  0  0
 17 18  4  0  0  0  0
 18 19  1  0  0  0  0
 19 20  1  0  0  0  0
 19 21  1  0  0  0  0
 18 22  4  0  0  0  0
 22 23  1  0  0  0  0
 22 24  4  0  0  0  0
 16 24  4  0  0  0  0
 24 25  2  0  0  0  0
 15 26  4  0  0  0  0
 26 27  4  0  0  0  0
 11 27  4  0  0  0  0
 27 28  1  0  0  0  0
 28 29  1  0  0  0  0
 29 30  1  0  0  0  0
 29 31  1  0  0  0  0
 31 32  1  0  0  0  0
 31 33  1  0  0  0  0
 31 34  1  0  0  0  0
M  END
> <IC50(uM)>
0.034

> <Outcome>
1.0

> <BindingDB ID>
972696; 1098850; 1098693; 972539

> <BindingDB MonomerID>
470574; 470414

> <BindingDB Ligand Name>
5-fluoro-4-{3-[1-hydroxyethyl]-4-methyl-5-oxo-4,5-dihydro-1H-1,2,4-triazol-1-yl}-N-(2-methylphenyl)-2-{[(2S)-1,1,1-trifluoropropan-2-yl]oxy}benzamide (Mixture of Stereoisomers)::US10815215, Example 234; 5-fluoro-4-{3-[1-hydroxyethyl]-4-methyl-5-oxo-4,5-dihydro-1H-1,2,4-triazol-1-yl}-N-(2-methylphenyl)-2-{[(2S)-1,1,1-trifluoropropan-2-yl]oxy}benzamide (Mixture of Stereoisomers)::US10815215, Example 234::US11130745, Example 234; 5-fluoro-4-{3-[(1S)-1-hydroxyethyl]-4-methyl-5-oxo-4,5-dihydro-1H-1,2,4-triazol-1-yl}-N-(2-methylphenyl)-2-{[(2S)-1,1,1-trifluoropropan-2-yl]oxy}benzamide::US10815215, Example 73::US11130745, Example 73; 5-fluoro-4-{3-[(1S)-1-hydroxyethyl]-4-methyl-5-oxo-4,5-dihydro-1H-1,2,4-triazol-1-yl}-N-(2-methylphenyl)-2-{[(2S)-1,1,1-trifluoropropan-2-yl]oxy}benzamide::US10815215, Example 73

> <Curation/DataSource>
US Patent

> <Article DOI>
?

> <PMID>
?

> <Patent Number>
US10815215; US11130745

> <Authors>
Gradl, SN; Nguyen, D; Eis, K; Gunther, J; Stellfeld, T; Janzer, A; Christian, S; Muller, T; Sheikh, SE; Zhou, HJ; Zhao, C; Sykes, DB; Ferrara, SJ; Liu, K; Krober, M; Merz, C; Niehues, M; Schafer, M; Zimmermann, K; Nising, CF; Gradl, SN; Nguyen, D; Eis, K; Gunther, J; Stellfeld, T; Janzer, A; Christian, S; Muller, T; Sheikh, SE; Sykes, DB; Ferrara, SJ; Krober, M; Merz, C; Niehues, M; Schafer, M; Zimmermann, K; Nising, CF

> <Link to Ligand in BindingDB>
http://www.bindingdb.org/bind/chemsearch/marvin/MolStructure.jsp?monomerid=470574; http://www.bindingdb.org/bind/chemsearch/marvin/MolStructure.jsp?monomerid=470414

> <Link to Ligand-Target Pair in BindingDB>
http://www.bindingdb.org/jsp/dbsearch/PrimarySearch_ki.jsp?energyterm=kJ/mole&tag=r21&monomerid=470574&enzyme=Dihydroorotate+dehydrogenase&column=ki&startPg=0&Increment=50&submit=Search; http://www.bindingdb.org/jsp/dbsearch/PrimarySearch_ki.jsp?energyterm=kJ/mole&tag=r21&monomerid=470414&enzyme=Dihydroorotate+dehydrogenase&column=ki&startPg=0&Increment=50&submit=Search

> <PubChem CID>
134469994; 134469863

> <PubChem SID>
441609750; 441609591

$$$$

  Mrv2115 07222212352D          

 24 27  0  0  0  0            999 V2000
   -0.7145   -2.0625    0.0000 N   0  0  0  0  0  0  0  0  0  0  0  0
    0.0000   -1.6500    0.0000 C   0  0  0  0  0  0  0  0  0  0  0  0
    0.7145   -1.2375    0.0000 C   0  0  0  0  0  0  0  0  0  0  0  0
    0.7145   -0.4125    0.0000 C   0  0  0  0  0  0  0  0  0  0  0  0
    0.0000    0.0000    0.0000 C   0  0  0  0  0  0  0  0  0  0  0  0
   -0.7145   -0.4125    0.0000 C   0  0  0  0  0  0  0  0  0  0  0  0
   -1.4289    0.0000    0.0000 C   0  0  0  0  0  0  0  0  0  0  0  0
   -1.4289    0.8250    0.0000 C   0  0  0  0  0  0  0  0  0  0  0  0
   -2.1434    1.2375    0.0000 C   0  0  0  0  0  0  0  0  0  0  0  0
   -2.8971    0.9019    0.0000 C   0  0  0  0  0  0  0  0  0  0  0  0
   -3.4491    1.5150    0.0000 N   0  0  0  0  0  0  0  0  0  0  0  0
   -3.0366    2.2295    0.0000 N   0  0  0  0  0  0  0  0  0  0  0  0
   -2.2296    2.0580    0.0000 C   0  0  0  0  0  0  0  0  0  0  0  0
   -0.7145    1.2375    0.0000 C   0  0  0  0  0  0  0  0  0  0  0  0
    0.0000    0.8250    0.0000 C   0  0  0  0  0  0  0  0  0  0  0  0
    1.4289    0.0000    0.0000 N   0  0  0  0  0  0  0  0  0  0  0  0
    2.1434   -0.4125    0.0000 C   0  0  0  0  0  0  0  0  0  0  0  0
    2.8579    0.0000    0.0000 C   0  0  0  0  0  0  0  0  0  0  0  0
    3.5724   -0.4125    0.0000 C   0  0  0  0  0  0  0  0  0  0  0  0
    3.5724   -1.2375    0.0000 N   0  0  0  0  0  0  0  0  0  0  0  0
    2.8579   -1.6500    0.0000 C   0  0  0  0  0  0  0  0  0  0  0  0
    2.1434   -1.2375    0.0000 C   0  0  0  0  0  0  0  0  0  0  0  0
    1.4289   -1.6500    0.0000 C   0  0  0  0  0  0  0  0  0  0  0  0
    1.4289   -2.4750    0.0000 O   0  0  0  0  0  0  0  0  0  0  0  0
  1  2  3  0  0  0  0
  2  3  1  0  0  0  0
  3  4  4  0  0  0  0
  4  5  1  0  0  0  0
  5  6  4  0  0  0  0
  6  7  4  0  0  0  0
  7  8  4  0  0  0  0
  8  9  1  0  0  0  0
  9 10  4  0  0  0  0
 10 11  4  0  0  0  0
 11 12  4  0  0  0  0
 12 13  4  0  0  0  0
  9 13  4  0  0  0  0
  8 14  4  0  0  0  0
 14 15  4  0  0  0  0
  5 15  4  0  0  0  0
  4 16  4  0  0  0  0
 16 17  4  0  0  0  0
 17 18  4  0  0  0  0
 18 19  4  0  0  0  0
 19 20  4  0  0  0  0
 20 21  4  0  0  0  0
 21 22  4  0  0  0  0
 17 22  4  0  0  0  0
 22 23  4  0  0  0  0
  3 23  4  0  0  0  0
 23 24  1  0  0  0  0
M  STY  1   1 DAT
M  SAL   1  1  12
M  SDT   1 MRV_IMPLICIT_H                                        
M  SDD   1     0.5304   -0.4125    DR    ALL  0       0  
M  SED   1 IMPL_H1
M  END
> <IC50(uM)>
9.9

> <Outcome>
0.0

> <BindingDB ID>
50720834

> <BindingDB MonomerID>
50365498

> <BindingDB Ligand Name>
CHEMBL1957371

> <Curation/DataSource>
ChEMBL

> <Article DOI>
10.1016/j.bmcl.2012.01.046

> <PMID>
22321214

> <Patent Number>
?

> <Authors>
Bauer, U; Giordanetto, F; Bauer, M; O'Mahony, G; Johansson, KE; Knecht, W; Hartleib-Geschwindner, J; Carlsson, ET; Enroth, C

> <Link to Ligand in BindingDB>
http://www.bindingdb.org/bind/chemsearch/marvin/MolStructure.jsp?monomerid=50365498

> <Link to Ligand-Target Pair in BindingDB>
http://www.bindingdb.org/jsp/dbsearch/PrimarySearch_ki.jsp?energyterm=kJ/mole&tag=r21&monomerid=50365498&enzyme=Dihydroorotate+dehydrogenase&column=ki&startPg=0&Increment=50&submit=Search

> <PubChem CID>
57393100

> <PubChem SID>
136969560

$$$$

  Mrv2115 07222212352D          

 24 28  0  0  0  0            999 V2000
   -0.3781   -2.9211    0.0000 C   0  0  0  0  0  0  0  0  0  0  0  0
    0.2519   -2.3885    0.0000 C   0  0  0  0  0  0  0  0  0  0  0  0
    0.1913   -1.5657    0.0000 N   0  0  0  0  0  0  0  0  0  0  0  0
    0.9551   -1.2539    0.0000 N   0  0  0  0  0  0  0  0  0  0  0  0
    1.4877   -1.8839    0.0000 C   0  0  0  0  0  0  0  0  0  0  0  0
    2.3123   -1.9097    0.0000 C   0  0  0  0  0  0  0  0  0  0  0  0
    2.7469   -1.2084    0.0000 C   0  0  0  0  0  0  0  0  0  0  0  0
    3.5715   -1.2342    0.0000 C   0  0  0  0  0  0  0  0  0  0  0  0
    3.9615   -1.9612    0.0000 C   0  0  0  0  0  0  0  0  0  0  0  0
    3.5269   -2.6624    0.0000 C   0  0  0  0  0  0  0  0  0  0  0  0
    2.7023   -2.6367    0.0000 C   0  0  0  0  0  0  0  0  0  0  0  0
    2.2677   -3.3379    0.0000 C   0  0  0  0  0  0  0  0  0  0  0  0
    2.6577   -4.0649    0.0000 N   0  0  0  0  0  0  0  0  0  0  0  0
    3.4823   -4.0907    0.0000 C   0  0  0  0  0  0  0  0  0  0  0  0
    3.8723   -4.8177    0.0000 C   0  0  0  0  0  0  0  0  0  0  0  0
    3.4377   -5.5189    0.0000 C   0  0  0  0  0  0  0  0  0  0  0  0
    3.8276   -6.2459    0.0000 C   0  0  0  0  0  0  0  0  0  0  0  0
    3.3930   -6.9472    0.0000 C   0  0  0  0  0  0  0  0  0  0  0  0
    2.5684   -6.9214    0.0000 C   0  0  0  0  0  0  0  0  0  0  0  0
    2.1785   -6.1944    0.0000 C   0  0  0  0  0  0  0  0  0  0  0  0
    2.6131   -5.4932    0.0000 C   0  0  0  0  0  0  0  0  0  0  0  0
    2.2231   -4.7662    0.0000 C   0  0  0  0  0  0  0  0  0  0  0  0
    1.4431   -3.3122    0.0000 N   0  0  0  0  0  0  0  0  0  0  0  0
    1.0531   -2.5852    0.0000 N   0  0  0  0  0  0  0  0  0  0  0  0
  1  2  1  0  0  0  0
  2  3  4  0  0  0  0
  3  4  4  0  0  0  0
  4  5  4  0  0  0  0
  5  6  4  0  0  0  0
  6  7  4  0  0  0  0
  7  8  4  0  0  0  0
  8  9  4  0  0  0  0
  9 10  4  0  0  0  0
 10 11  4  0  0  0  0
  6 11  4  0  0  0  0
 11 12  4  0  0  0  0
 12 13  1  0  0  0  0
 13 14  1  0  0  0  0
 14 15  1  0  0  0  0
 15 16  1  0  0  0  0
 16 17  4  0  0  0  0
 17 18  4  0  0  0  0
 18 19  4  0  0  0  0
 19 20  4  0  0  0  0
 20 21  4  0  0  0  0
 16 21  4  0  0  0  0
 21 22  1  0  0  0  0
 13 22  1  0  0  0  0
 12 23  4  0  0  0  0
 23 24  4  0  0  0  0
  2 24  4  0  0  0  0
  5 24  4  0  0  0  0
M  END
> <IC50(uM)>
3.8

> <Outcome>
0.0

> <BindingDB ID>
404293

> <BindingDB MonomerID>
231628

> <BindingDB Ligand Name>
IDI-6253

> <Curation/DataSource>
Curated from the literature by BindingDB

> <Article DOI>
10.1074/jbc.M114.558353

> <PMID>
24782313

> <Patent Number>
?

> <Authors>
Ross, LS; Gamo, FJ; Lafuente-Monasterio, MJ; Singh, OM; Rowland, P; Wiegand, RC; Wirth, DF

> <Link to Ligand in BindingDB>
http://www.bindingdb.org/bind/chemsearch/marvin/MolStructure.jsp?monomerid=231628

> <Link to Ligand-Target Pair in BindingDB>
http://www.bindingdb.org/jsp/dbsearch/PrimarySearch_ki.jsp?energyterm=kJ/mole&tag=r21&monomerid=231628&enzyme=Dihydroorotate+dehydrogenase&column=ki&startPg=0&Increment=50&submit=Search

> <PubChem CID>
18524077

> <PubChem SID>
336950877

$$$$

  Mrv2115 07222212352D          

 25 27  0  0  0  0            999 V2000
    2.1434   -2.8875    0.0000 C   0  0  0  0  0  0  0  0  0  0  0  0
    2.1434   -3.7125    0.0000 C   0  0  0  0  0  0  0  0  0  0  0  0
    1.4289   -4.1250    0.0000 C   0  0  0  0  0  0  0  0  0  0  0  0
    1.4289   -4.9500    0.0000 C   0  0  0  0  0  0  0  0  0  0  0  0
    2.1434   -5.3625    0.0000 C   0  0  0  0  0  0  0  0  0  0  0  0
    2.1434   -6.1875    0.0000 N   0  0  0  0  0  0  0  0  0  0  0  0
    1.4289   -6.6000    0.0000 C   0  0  0  0  0  0  0  0  0  0  0  0
    1.4289   -7.4250    0.0000 C   0  0  0  0  0  0  0  0  0  0  0  0
    0.7145   -7.8375    0.0000 C   0  0  0  0  0  0  0  0  0  0  0  0
    0.0000   -7.4250    0.0000 C   0  0  0  0  0  0  0  0  0  0  0  0
   -0.7145   -7.8375    0.0000 C   0  0  0  0  0  0  0  0  0  0  0  0
   -0.7145   -8.6625    0.0000 C   0  0  0  0  0  0  0  0  0  0  0  0
   -1.4289   -9.0750    0.0000 C   0  0  0  0  0  0  0  0  0  0  0  0
   -2.1434   -8.6625    0.0000 C   0  0  0  0  0  0  0  0  0  0  0  0
   -2.8579   -9.0750    0.0000 F   0  0  0  0  0  0  0  0  0  0  0  0
   -2.1434   -7.8375    0.0000 C   0  0  0  0  0  0  0  0  0  0  0  0
   -1.4289   -7.4250    0.0000 C   0  0  0  0  0  0  0  0  0  0  0  0
   -1.4289   -6.6000    0.0000 F   0  0  0  0  0  0  0  0  0  0  0  0
    0.0000   -6.6000    0.0000 N   0  0  0  0  0  0  0  0  0  0  0  0
    0.7145   -6.1875    0.0000 C   0  0  0  0  0  0  0  0  0  0  0  0
    2.8579   -4.9500    0.0000 C   0  0  0  0  0  0  0  0  0  0  0  0
    3.5724   -5.3625    0.0000 C   0  0  0  0  0  0  0  0  0  0  0  0
    4.2868   -4.9500    0.0000 O   0  0  0  0  0  0  0  0  0  0  0  0
    3.5724   -6.1875    0.0000 O   0  0  0  0  0  0  0  0  0  0  0  0
    2.8579   -4.1250    0.0000 C   0  0  0  0  0  0  0  0  0  0  0  0
  1  2  1  0  0  0  0
  2  3  4  0  0  0  0
  3  4  4  0  0  0  0
  4  5  4  0  0  0  0
  5  6  1  0  0  0  0
  6  7  1  0  0  0  0
  7  8  4  0  0  0  0
  8  9  4  0  0  0  0
  9 10  4  0  0  0  0
 10 11  1  0  0  0  0
 11 12  4  0  0  0  0
 12 13  4  0  0  0  0
 13 14  4  0  0  0  0
 14 15  1  0  0  0  0
 14 16  4  0  0  0  0
 16 17  4  0  0  0  0
 11 17  4  0  0  0  0
 17 18  1  0  0  0  0
 10 19  4  0  0  0  0
 19 20  4  0  0  0  0
  7 20  4  0  0  0  0
  5 21  4  0  0  0  0
 21 22  1  0  0  0  0
 22 23  2  0  0  0  0
 22 24  1  0  0  0  0
 21 25  4  0  0  0  0
  2 25  4  0  0  0  0
M  END
> <IC50(uM)>
0.146

> <Outcome>
1.0

> <BindingDB ID>
17430

> <BindingDB MonomerID>
8661

> <BindingDB Ligand Name>
US8536165, 110

> <Curation/DataSource>
US Patent

> <Article DOI>
?

> <PMID>
?

> <Patent Number>
US8536165

> <Authors>
Castro Palomino Laria, JC; Terricabras Belart, E; Erra Sola, M; Navarro Romero, E; Fonquerna Pou, S; Cardus Figueras, A; Lozoya Toribio, ME

> <Link to Ligand in BindingDB>
http://www.bindingdb.org/bind/chemsearch/marvin/MolStructure.jsp?monomerid=8661

> <Link to Ligand-Target Pair in BindingDB>
http://www.bindingdb.org/jsp/dbsearch/PrimarySearch_ki.jsp?energyterm=kJ/mole&tag=r21&monomerid=8661&enzyme=Dihydroorotate+dehydrogenase&column=ki&startPg=0&Increment=50&submit=Search

> <PubChem CID>
57479018

> <PubChem SID>
242052814

$$$$

  Mrv2115 07222212352D          

 34 37  0  0  0  0            999 V2000
   -5.1659    1.4455    0.0000 C   0  0  0  0  0  0  0  0  0  0  0  0
   -4.3409    1.4455    0.0000 C   0  0  0  0  0  0  0  0  0  0  0  0
   -3.9284    2.1599    0.0000 C   0  0  0  0  0  0  0  0  0  0  0  0
   -3.1034    2.1599    0.0000 C   0  0  0  0  0  0  0  0  0  0  0  0
   -2.6909    1.4455    0.0000 C   0  0  0  0  0  0  0  0  0  0  0  0
   -3.1034    0.7310    0.0000 C   0  0  0  0  0  0  0  0  0  0  0  0
   -3.9284    0.7310    0.0000 C   0  0  0  0  0  0  0  0  0  0  0  0
   -4.3409    0.0165    0.0000 N   0  0  0  0  0  0  0  0  0  0  0  0
   -3.9284   -0.6979    0.0000 C   0  0  0  0  0  0  0  0  0  0  0  0
   -4.3409   -1.4124    0.0000 O   0  0  0  0  0  0  0  0  0  0  0  0
   -3.1034   -0.6979    0.0000 C   0  0  0  0  0  0  0  0  0  0  0  0
   -2.6909    0.0165    0.0000 C   0  0  0  0  0  0  0  0  0  0  0  0
   -1.8659    0.0165    0.0000 C   0  0  0  0  0  0  0  0  0  0  0  0
   -1.4534    0.7310    0.0000 Cl  0  0  0  0  0  0  0  0  0  0  0  0
   -1.4534   -0.6979    0.0000 C   0  0  0  0  0  0  0  0  0  0  0  0
   -0.6284   -0.6979    0.0000 N   0  0  0  0  0  0  0  0  0  0  0  0
   -0.1435   -1.3654    0.0000 N   0  0  0  0  0  0  0  0  0  0  0  0
    0.6411   -1.1104    0.0000 C   0  0  0  0  0  0  0  0  0  0  0  0
    0.6411   -0.2854    0.0000 N   0  0  0  0  0  0  0  0  0  0  0  0
   -0.1435   -0.0305    0.0000 C   0  0  0  0  0  0  0  0  0  0  0  0
   -0.3984    0.7541    0.0000 O   0  0  0  0  0  0  0  0  0  0  0  0
    1.3556    0.1271    0.0000 C   0  0  0  0  0  0  0  0  0  0  0  0
    2.0701   -0.2854    0.0000 C   0  0  0  0  0  0  0  0  0  0  0  0
    2.0701   -1.1104    0.0000 C   0  0  0  0  0  0  0  0  0  0  0  0
    1.3556   -1.5229    0.0000 C   0  0  0  0  0  0  0  0  0  0  0  0
   -1.8659   -1.4124    0.0000 C   0  0  0  0  0  0  0  0  0  0  0  0
   -2.6909   -1.4124    0.0000 C   0  0  0  0  0  0  0  0  0  0  0  0
   -3.1034   -2.1269    0.0000 O   0  0  0  0  0  0  0  0  0  0  0  0
   -2.6909   -2.8414    0.0000 C   0  0  0  0  0  0  0  0  0  0  0  0
   -1.8659   -2.8414    0.0000 C   0  0  0  0  0  0  0  0  0  0  0  0
   -3.1034   -3.5558    0.0000 C   0  0  0  0  0  0  0  0  0  0  0  0
   -3.8179   -3.1433    0.0000 F   0  0  0  0  0  0  0  0  0  0  0  0
   -2.3890   -3.9683    0.0000 F   0  0  0  0  0  0  0  0  0  0  0  0
   -3.5159   -4.2703    0.0000 F   0  0  0  0  0  0  0  0  0  0  0  0
  1  2  1  0  0  0  0
  2  3  4  0  0  0  0
  3  4  4  0  0  0  0
  4  5  4  0  0  0  0
  5  6  4  0  0  0  0
  6  7  4  0  0  0  0
  2  7  4  0  0  0  0
  7  8  1  0  0  0  0
  8  9  1  0  0  0  0
  9 10  2  0  0  0  0
  9 11  1  0  0  0  0
 11 12  4  0  0  0  0
 12 13  4  0  0  0  0
 13 14  1  0  0  0  0
 13 15  4  0  0  0  0
 15 16  1  0  0  0  0
 16 17  4  0  0  0  0
 17 18  4  0  0  0  0
 18 19  4  0  0  0  0
 19 20  4  0  0  0  0
 16 20  4  0  0  0  0
 20 21  2  0  0  0  0
 19 22  1  0  0  0  0
 22 23  1  0  0  0  0
 23 24  1  0  0  0  0
 24 25  1  0  0  0  0
 18 25  1  0  0  0  0
 15 26  4  0  0  0  0
 26 27  4  0  0  0  0
 11 27  4  0  0  0  0
 27 28  1  0  0  0  0
 28 29  1  0  0  0  0
 29 30  1  0  0  0  0
 29 31  1  0  0  0  0
 31 32  1  0  0  0  0
 31 33  1  0  0  0  0
 31 34  1  0  0  0  0
M  END
> <IC50(uM)>
0.18

> <Outcome>
1.0

> <BindingDB ID>
1020695

> <BindingDB MonomerID>
490621

> <BindingDB Ligand Name>
5-chloro-N-(2-methylphenyl)-4-(3-oxo-5,6,7,8-tetrahydro[1,2,4]triazolo[4,3-a]pyridin-2(3H)-yl)-2-{[(2S)-1,1,1-trifluoropropan-2-yl]oxy}benzamide::US10968216, Example 289

> <Curation/DataSource>
US Patent

> <Article DOI>
?

> <PMID>
?

> <Patent Number>
US10968216

> <Authors>
Gradl, SN; Nguyen, D; Eis, K; Gunther, J; Stellfeld, T; Janzer, A; Christian, S; Mueller, T; Sheikh, SE; Zhou, HJ; Zhao, C; Sykes, DB; Ferrara, SJ; Liu, K; Herbert, SA; Merz, C; Niehues, M; Nising, CF; Schafer, M; Zimmermann, K; Knablein, J; Thede, K; Faupel, T

> <Link to Ligand in BindingDB>
http://www.bindingdb.org/bind/chemsearch/marvin/MolStructure.jsp?monomerid=490621

> <Link to Ligand-Target Pair in BindingDB>
http://www.bindingdb.org/jsp/dbsearch/PrimarySearch_ki.jsp?energyterm=kJ/mole&tag=r21&monomerid=490621&enzyme=Dihydroorotate+dehydrogenase&column=ki&startPg=0&Increment=50&submit=Search

> <PubChem CID>
134474438

> <PubChem SID>
447117347

$$$$

  Mrv2115 07222212352D          

 26 28  0  0  0  0            999 V2000
    0.7145   11.7161    0.0000 C   0  0  0  0  0  0  0  0  0  0  0  0
    0.7145   10.8911    0.0000 O   0  0  0  0  0  0  0  0  0  0  0  0
    1.4289   10.4786    0.0000 C   0  0  0  0  0  0  0  0  0  0  0  0
    2.1434   10.8911    0.0000 C   0  0  0  0  0  0  0  0  0  0  0  0
    2.8579   10.4786    0.0000 C   0  0  0  0  0  0  0  0  0  0  0  0
    2.8579    9.6536    0.0000 C   0  0  0  0  0  0  0  0  0  0  0  0
    2.1434    9.2411    0.0000 C   0  0  0  0  0  0  0  0  0  0  0  0
    2.1434    8.4161    0.0000 C   0  0  0  0  0  0  0  0  0  0  0  0
    2.8579    8.0036    0.0000 C   0  0  0  0  0  0  0  0  0  0  0  0
    2.8579    7.1786    0.0000 C   0  0  0  0  0  0  0  0  0  0  0  0
    2.1434    6.7661    0.0000 C   0  0  0  0  0  0  0  0  0  0  0  0
    2.1434    5.9411    0.0000 N   0  0  0  0  0  0  0  0  0  0  0  0
    1.4289    5.5286    0.0000 C   0  0  0  0  0  0  0  0  0  0  0  0
    0.7145    5.9411    0.0000 O   0  0  0  0  0  0  0  0  0  0  0  0
    1.4289    4.7036    0.0000 C   0  0  0  0  0  0  0  0  0  0  0  0
    2.0964    4.2187    0.0000 C   0  0  0  0  0  0  0  0  0  0  0  0
    1.8414    3.4340    0.0000 O   0  0  0  0  0  0  0  0  0  0  0  0
    1.0164    3.4340    0.0000 C   0  0  0  0  0  0  0  0  0  0  0  0
    0.7615    4.2187    0.0000 C   0  0  0  0  0  0  0  0  0  0  0  0
   -0.0231    4.4736    0.0000 C   0  0  0  0  0  0  0  0  0  0  0  0
   -0.6362    3.9216    0.0000 O   0  0  0  0  0  0  0  0  0  0  0  0
   -0.1946    5.2806    0.0000 O   0  0  0  0  0  0  0  0  0  0  0  0
    1.4289    7.1786    0.0000 C   0  0  0  0  0  0  0  0  0  0  0  0
    0.7145    6.7661    0.0000 F   0  0  0  0  0  0  0  0  0  0  0  0
    1.4289    8.0036    0.0000 C   0  0  0  0  0  0  0  0  0  0  0  0
    1.4289    9.6536    0.0000 C   0  0  0  0  0  0  0  0  0  0  0  0
  1  2  1  0  0  0  0
  2  3  1  0  0  0  0
  3  4  4  0  0  0  0
  4  5  4  0  0  0  0
  5  6  4  0  0  0  0
  6  7  4  0  0  0  0
  7  8  1  0  0  0  0
  8  9  4  0  0  0  0
  9 10  4  0  0  0  0
 10 11  4  0  0  0  0
 11 12  1  0  0  0  0
 12 13  1  0  0  0  0
 13 14  2  0  0  0  0
 13 15  1  0  0  0  0
 15 16  4  0  0  0  0
 16 17  4  0  0  0  0
 17 18  4  0  0  0  0
 18 19  4  0  0  0  0
 15 19  4  0  0  0  0
 19 20  1  0  0  0  0
 20 21  2  0  0  0  0
 20 22  1  0  0  0  0
 11 23  4  0  0  0  0
 23 24  1  0  0  0  0
 23 25  4  0  0  0  0
  8 25  4  0  0  0  0
  7 26  4  0  0  0  0
  3 26  4  0  0  0  0
M  END
> <IC50(uM)>
0.34

> <Outcome>
1.0

> <BindingDB ID>
29229

> <BindingDB MonomerID>
16126

> <BindingDB Ligand Name>
4-{[2-fluoro-4-(3-methoxyphenyl)phenyl]carbamoyl}furan-3-carboxylic acid::Biphenyl-4-ylcarbamoyl Furan Analog 17

> <Curation/DataSource>
Curated from the literature by BindingDB

> <Article DOI>
10.1016/j.bmcl.2005.10.011

> <PMID>
16246558

> <Patent Number>
?

> <Authors>
Leban, J; Kralik, M; Mies, J; Baumgartner, R; Gassen, M; Tasler, S

> <Link to Ligand in BindingDB>
http://www.bindingdb.org/bind/chemsearch/marvin/MolStructure.jsp?monomerid=16126

> <Link to Ligand-Target Pair in BindingDB>
http://www.bindingdb.org/jsp/dbsearch/PrimarySearch_ki.jsp?energyterm=kJ/mole&tag=r21&monomerid=16126&enzyme=Dihydroorotate+Dehydrogenase+%28DHODH%29&column=ki&startPg=0&Increment=50&submit=Search

> <PubChem CID>
23647309

> <PubChem SID>
46516385

$$$$

  Mrv2115 07222212352D          

 30 31  0  0  0  0            999 V2000
   -2.1434   -1.2375    0.0000 C   0  0  0  0  0  0  0  0  0  0  0  0
   -1.4289   -1.6500    0.0000 C   0  0  0  0  0  0  0  0  0  0  0  0
   -0.7145   -1.2375    0.0000 C   0  0  0  0  0  0  0  0  0  0  0  0
    0.0000   -1.6500    0.0000 C   0  0  0  0  0  0  0  0  0  0  0  0
    0.0000   -2.4750    0.0000 C   0  0  0  0  0  0  0  0  0  0  0  0
    0.7145   -1.2375    0.0000 O   0  0  0  0  0  0  0  0  0  0  0  0
    0.7145   -0.4125    0.0000 C   0  0  0  0  0  0  0  0  0  0  0  0
    0.0000    0.0000    0.0000 C   0  0  0  0  0  0  0  0  0  0  0  0
    0.0000    0.8250    0.0000 C   0  0  0  0  0  0  0  0  0  0  0  0
   -0.7145    1.2375    0.0000 N   0  0  0  0  0  0  0  0  0  0  0  0
   -1.4681    0.9019    0.0000 N   0  0  0  0  0  0  0  0  0  0  0  0
   -2.0202    1.5150    0.0000 C   0  0  0  0  0  0  0  0  0  0  0  0
   -2.8407    1.4288    0.0000 C   0  0  0  0  0  0  0  0  0  0  0  0
   -3.3256    2.0962    0.0000 O   0  0  0  0  0  0  0  0  0  0  0  0
   -1.6077    2.2295    0.0000 N   0  0  0  0  0  0  0  0  0  0  0  0
   -1.9432    2.9832    0.0000 C   0  0  0  0  0  0  0  0  0  0  0  0
   -0.8007    2.0580    0.0000 C   0  0  0  0  0  0  0  0  0  0  0  0
   -0.1876    2.6100    0.0000 O   0  0  0  0  0  0  0  0  0  0  0  0
    0.7145    1.2375    0.0000 C   0  0  0  0  0  0  0  0  0  0  0  0
    0.7145    2.0625    0.0000 F   0  0  0  0  0  0  0  0  0  0  0  0
    1.4289    0.8250    0.0000 C   0  0  0  0  0  0  0  0  0  0  0  0
    1.4289    0.0000    0.0000 C   0  0  0  0  0  0  0  0  0  0  0  0
    2.1434   -0.4125    0.0000 C   0  0  0  0  0  0  0  0  0  0  0  0
    2.8579    0.0000    0.0000 O   0  0  0  0  0  0  0  0  0  0  0  0
    2.1434   -1.2375    0.0000 N   0  0  0  0  0  0  0  0  0  0  0  0
    2.8579   -1.6500    0.0000 C   0  0  0  0  0  0  0  0  0  0  0  0
    2.8579   -2.4750    0.0000 C   0  0  0  0  0  0  0  0  0  0  0  0
    3.5724   -2.8875    0.0000 C   0  0  0  0  0  0  0  0  0  0  0  0
    3.5724   -1.2375    0.0000 C   0  0  0  0  0  0  0  0  0  0  0  0
    3.5724   -0.4125    0.0000 C   0  0  0  0  0  0  0  0  0  0  0  0
  1  2  1  0  0  0  0
  2  3  1  0  0  0  0
  3  4  1  0  0  0  0
  4  5  1  0  0  0  0
  4  6  1  0  0  0  0
  6  7  1  0  0  0  0
  7  8  4  0  0  0  0
  8  9  4  0  0  0  0
  9 10  1  0  0  0  0
 10 11  4  0  0  0  0
 11 12  4  0  0  0  0
 12 13  1  0  0  0  0
 13 14  1  0  0  0  0
 12 15  4  0  0  0  0
 15 16  1  0  0  0  0
 15 17  4  0  0  0  0
 10 17  4  0  0  0  0
 17 18  2  0  0  0  0
  9 19  4  0  0  0  0
 19 20  1  0  0  0  0
 19 21  4  0  0  0  0
 21 22  4  0  0  0  0
  7 22  4  0  0  0  0
 22 23  1  0  0  0  0
 23 24  2  0  0  0  0
 23 25  1  0  0  0  0
 25 26  1  0  0  0  0
 26 27  1  0  0  0  0
 27 28  1  0  0  0  0
 26 29  1  0  0  0  0
 29 30  1  0  0  0  0
M  END
> <IC50(uM)>
0.06

> <Outcome>
1.0

> <BindingDB ID>
1098756; 972602

> <BindingDB MonomerID>
470481

> <BindingDB Ligand Name>
5-fluoro-4-[3-(hydroxymethyl)-4-methyl-5-oxo-4,5-dihydro-1H-1,2,4-triazol-1-yl]-N-(pentan-3-yl)-2-[(2S)-pentan-2-yloxy]benzamide::US10815215, Example 144::US11130745, Example 144; 5-fluoro-4-[3-(hydroxymethyl)-4-methyl-5-oxo-4,5-dihydro-1H-1,2,4-triazol-1-yl]-N-(pentan-3-yl)-2-[(2S)-pentan-2-yloxy]benzamide::US10815215, Example 144

> <Curation/DataSource>
US Patent

> <Article DOI>
?

> <PMID>
?

> <Patent Number>
US11130745; US10815215

> <Authors>
Gradl, SN; Nguyen, D; Eis, K; Gunther, J; Stellfeld, T; Janzer, A; Christian, S; Muller, T; Sheikh, SE; Sykes, DB; Ferrara, SJ; Krober, M; Merz, C; Niehues, M; Schafer, M; Zimmermann, K; Nising, CF; Gradl, SN; Nguyen, D; Eis, K; Gunther, J; Stellfeld, T; Janzer, A; Christian, S; Muller, T; Sheikh, SE; Zhou, HJ; Zhao, C; Sykes, DB; Ferrara, SJ; Liu, K; Krober, M; Merz, C; Niehues, M; Schafer, M; Zimmermann, K; Nising, CF

> <Link to Ligand in BindingDB>
http://www.bindingdb.org/bind/chemsearch/marvin/MolStructure.jsp?monomerid=470481

> <Link to Ligand-Target Pair in BindingDB>
http://www.bindingdb.org/jsp/dbsearch/PrimarySearch_ki.jsp?energyterm=kJ/mole&tag=r21&monomerid=470481&enzyme=Dihydroorotate+dehydrogenase&column=ki&startPg=0&Increment=50&submit=Search

> <PubChem CID>
134470193

> <PubChem SID>
441609658

$$$$

  Mrv2115 07222212352D          

 25 28  0  0  0  0            999 V2000
    3.5724   -2.8875    0.0000 O   0  0  0  0  0  0  0  0  0  0  0  0
    3.5724   -3.7125    0.0000 C   0  0  0  0  0  0  0  0  0  0  0  0
    4.2868   -4.1250    0.0000 O   0  0  0  0  0  0  0  0  0  0  0  0
    2.8579   -4.1250    0.0000 C   0  0  0  0  0  0  0  0  0  0  0  0
    2.8579   -4.9500    0.0000 C   0  0  0  0  0  0  0  0  0  0  0  0
    2.1434   -5.3625    0.0000 C   0  0  0  0  0  0  0  0  0  0  0  0
    2.1434   -6.1875    0.0000 C   0  0  0  0  0  0  0  0  0  0  0  0
    2.5559   -6.9020    0.0000 C   0  0  0  0  0  0  0  0  0  0  0  0
    1.7309   -6.9020    0.0000 C   0  0  0  0  0  0  0  0  0  0  0  0
    1.4289   -4.9500    0.0000 C   0  0  0  0  0  0  0  0  0  0  0  0
    1.4289   -4.1250    0.0000 C   0  0  0  0  0  0  0  0  0  0  0  0
    2.1434   -3.7125    0.0000 C   0  0  0  0  0  0  0  0  0  0  0  0
    2.1434   -2.8875    0.0000 N   0  0  0  0  0  0  0  0  0  0  0  0
    1.4289   -2.4750    0.0000 C   0  0  0  0  0  0  0  0  0  0  0  0
    0.7145   -2.8875    0.0000 C   0  0  0  0  0  0  0  0  0  0  0  0
    0.0000   -2.4750    0.0000 N   0  0  0  0  0  0  0  0  0  0  0  0
    0.0000   -1.6500    0.0000 C   0  0  0  0  0  0  0  0  0  0  0  0
    0.7145   -1.2375    0.0000 C   0  0  0  0  0  0  0  0  0  0  0  0
    0.7145   -0.4125    0.0000 C   0  0  0  0  0  0  0  0  0  0  0  0
    0.0000    0.0000    0.0000 C   0  0  0  0  0  0  0  0  0  0  0  0
    0.0000    0.8250    0.0000 C   0  0  0  0  0  0  0  0  0  0  0  0
    0.7145    1.2375    0.0000 C   0  0  0  0  0  0  0  0  0  0  0  0
    1.4289    0.8250    0.0000 C   0  0  0  0  0  0  0  0  0  0  0  0
    1.4289    0.0000    0.0000 C   0  0  0  0  0  0  0  0  0  0  0  0
    1.4289   -1.6500    0.0000 C   0  0  0  0  0  0  0  0  0  0  0  0
  1  2  2  0  0  0  0
  2  3  1  0  0  0  0
  2  4  1  0  0  0  0
  4  5  4  0  0  0  0
  5  6  4  0  0  0  0
  6  7  1  0  0  0  0
  7  8  1  0  0  0  0
  8  9  1  0  0  0  0
  7  9  1  0  0  0  0
  6 10  4  0  0  0  0
 10 11  4  0  0  0  0
 11 12  4  0  0  0  0
  4 12  4  0  0  0  0
 12 13  1  0  0  0  0
 13 14  1  0  0  0  0
 14 15  4  0  0  0  0
 15 16  4  0  0  0  0
 16 17  4  0  0  0  0
 17 18  4  0  0  0  0
 18 19  1  0  0  0  0
 19 20  4  0  0  0  0
 20 21  4  0  0  0  0
 21 22  4  0  0  0  0
 22 23  4  0  0  0  0
 23 24  4  0  0  0  0
 19 24  4  0  0  0  0
 18 25  4  0  0  0  0
 14 25  4  0  0  0  0
M  END
> <IC50(uM)>
0.113

> <Outcome>
1.0

> <BindingDB ID>
219982

> <BindingDB MonomerID>
102452

> <BindingDB Ligand Name>
US8536165, 15

> <Curation/DataSource>
US Patent

> <Article DOI>
?

> <PMID>
?

> <Patent Number>
US8536165

> <Authors>
Castro Palomino Laria, JC; Terricabras Belart, E; Erra Sola, M; Navarro Romero, E; Fonquerna Pou, S; Cardus Figueras, A; Lozoya Toribio, ME

> <Link to Ligand in BindingDB>
http://www.bindingdb.org/bind/chemsearch/marvin/MolStructure.jsp?monomerid=102452

> <Link to Ligand-Target Pair in BindingDB>
http://www.bindingdb.org/jsp/dbsearch/PrimarySearch_ki.jsp?energyterm=kJ/mole&tag=r21&monomerid=102452&enzyme=Dihydroorotate+dehydrogenase&column=ki&startPg=0&Increment=50&submit=Search

> <PubChem CID>
25186720

> <PubChem SID>
172097743

$$$$

  Mrv2115 07222212352D          

 21 22  0  0  0  0            999 V2000
   -0.7145   -0.4125    0.0000 C   0  0  0  0  0  0  0  0  0  0  0  0
   -0.7145   -1.2375    0.0000 C   0  0  0  0  0  0  0  0  0  0  0  0
   -1.4289   -1.6500    0.0000 C   0  0  0  0  0  0  0  0  0  0  0  0
   -2.1434   -1.2375    0.0000 N   0  0  0  0  0  0  0  0  0  0  0  0
   -2.8579   -1.6500    0.0000 C   0  0  0  0  0  0  0  0  0  0  0  0
   -2.8579   -2.4750    0.0000 N   0  0  0  0  0  0  0  0  0  0  0  0
   -3.5724   -2.8875    0.0000 C   0  0  0  0  0  0  0  0  0  0  0  0
   -4.2868   -2.4750    0.0000 C   0  0  0  0  0  0  0  0  0  0  0  0
   -4.2868   -1.6500    0.0000 C   0  0  0  0  0  0  0  0  0  0  0  0
   -3.5724   -1.2375    0.0000 C   0  0  0  0  0  0  0  0  0  0  0  0
   -3.5724   -0.4125    0.0000 C   0  0  0  0  0  0  0  0  0  0  0  0
   -2.8579   -0.0000    0.0000 O   0  0  0  0  0  0  0  0  0  0  0  0
   -4.2868   -0.0000    0.0000 O   0  0  0  0  0  0  0  0  0  0  0  0
   -1.4289   -2.4750    0.0000 C   0  0  0  0  0  0  0  0  0  0  0  0
   -0.7145   -2.8875    0.0000 C   0  0  0  0  0  0  0  0  0  0  0  0
    0.0000   -2.4750    0.0000 C   0  0  0  0  0  0  0  0  0  0  0  0
    0.0000   -1.6500    0.0000 C   0  0  0  0  0  0  0  0  0  0  0  0
    0.7145   -1.2375    0.0000 C   0  0  0  0  0  0  0  0  0  0  0  0
    1.4289   -0.8250    0.0000 F   0  0  0  0  0  0  0  0  0  0  0  0
    1.1270   -1.9520    0.0000 F   0  0  0  0  0  0  0  0  0  0  0  0
    0.3020   -0.5230    0.0000 F   0  0  0  0  0  0  0  0  0  0  0  0
  1  2  1  0  0  0  0
  2  3  4  0  0  0  0
  3  4  1  0  0  0  0
  4  5  1  0  0  0  0
  5  6  4  0  0  0  0
  6  7  4  0  0  0  0
  7  8  4  0  0  0  0
  8  9  4  0  0  0  0
  9 10  4  0  0  0  0
  5 10  4  0  0  0  0
 10 11  1  0  0  0  0
 11 12  2  0  0  0  0
 11 13  1  0  0  0  0
  3 14  4  0  0  0  0
 14 15  4  0  0  0  0
 15 16  4  0  0  0  0
 16 17  4  0  0  0  0
  2 17  4  0  0  0  0
 17 18  1  0  0  0  0
 18 19  1  0  0  0  0
 18 20  1  0  0  0  0
 18 21  1  0  0  0  0
M  END
> <IC50(uM)>
8.0

> <Outcome>
0.0

> <BindingDB ID>
50527772

> <BindingDB MonomerID>
50201618

> <BindingDB Ligand Name>
CHEBI:76138::FLUNIXIN::Flunixin::SCH-14714

> <Curation/DataSource>
ChEMBL

> <Article DOI>
10.1021/acsmedchemlett.6b00316

> <PMID>
27994748

> <Patent Number>
?

> <Authors>
Lewis, TA; Sykes, DB; Law, JM; Mu??oz, B; Rustiguel, JK; Nonato, MC; Scadden, DT; Schreiber, SL

> <Link to Ligand in BindingDB>
http://www.bindingdb.org/bind/chemsearch/marvin/MolStructure.jsp?monomerid=50201618

> <Link to Ligand-Target Pair in BindingDB>
http://www.bindingdb.org/jsp/dbsearch/PrimarySearch_ki.jsp?energyterm=kJ/mole&tag=r21&monomerid=50201618&enzyme=Dihydroorotate+dehydrogenase&column=ki&startPg=0&Increment=50&submit=Search

> <PubChem CID>
38081

> <PubChem SID>
375979406

$$$$

  Mrv2115 07222212352D          

 25 28  0  0  0  0            999 V2000
    3.9934    2.4750    0.0000 O   0  0  0  0  0  0  0  0  0  0  0  0
    3.2789    2.0625    0.0000 C   0  0  0  0  0  0  0  0  0  0  0  0
    2.5645    2.4750    0.0000 O   0  0  0  0  0  0  0  0  0  0  0  0
    3.2789    1.2375    0.0000 C   0  0  0  0  0  0  0  0  0  0  0  0
    3.9934    0.8250    0.0000 C   0  0  0  0  0  0  0  0  0  0  0  0
    3.9934    0.0000    0.0000 C   0  0  0  0  0  0  0  0  0  0  0  0
    4.7079   -0.4125    0.0000 Cl  0  0  0  0  0  0  0  0  0  0  0  0
    3.2789   -0.4125    0.0000 C   0  0  0  0  0  0  0  0  0  0  0  0
    2.5645    0.0000    0.0000 C   0  0  0  0  0  0  0  0  0  0  0  0
    2.5645    0.8250    0.0000 C   0  0  0  0  0  0  0  0  0  0  0  0
    1.7798    1.0799    0.0000 N   0  0  0  0  0  0  0  0  0  0  0  0
    1.2949    0.4125    0.0000 C   0  0  0  0  0  0  0  0  0  0  0  0
    0.4699    0.4125    0.0000 C   0  0  0  0  0  0  0  0  0  0  0  0
    0.0574   -0.3020    0.0000 C   0  0  0  0  0  0  0  0  0  0  0  0
   -0.7676   -0.3020    0.0000 C   0  0  0  0  0  0  0  0  0  0  0  0
   -1.1801    0.4125    0.0000 C   0  0  0  0  0  0  0  0  0  0  0  0
   -2.0051    0.4125    0.0000 C   0  0  0  0  0  0  0  0  0  0  0  0
   -2.4176   -0.3020    0.0000 C   0  0  0  0  0  0  0  0  0  0  0  0
   -3.2426   -0.3020    0.0000 C   0  0  0  0  0  0  0  0  0  0  0  0
   -3.6551    0.4125    0.0000 C   0  0  0  0  0  0  0  0  0  0  0  0
   -3.2426    1.1270    0.0000 C   0  0  0  0  0  0  0  0  0  0  0  0
   -2.4176    1.1270    0.0000 C   0  0  0  0  0  0  0  0  0  0  0  0
   -0.7676    1.1270    0.0000 C   0  0  0  0  0  0  0  0  0  0  0  0
    0.0574    1.1270    0.0000 C   0  0  0  0  0  0  0  0  0  0  0  0
    1.7798   -0.2549    0.0000 C   0  0  0  0  0  0  0  0  0  0  0  0
  1  2  2  0  0  0  0
  2  3  1  0  0  0  0
  2  4  1  0  0  0  0
  4  5  4  0  0  0  0
  5  6  4  0  0  0  0
  6  7  1  0  0  0  0
  6  8  4  0  0  0  0
  8  9  4  0  0  0  0
  9 10  4  0  0  0  0
  4 10  4  0  0  0  0
 10 11  1  0  0  0  0
 11 12  2  0  0  0  0
 12 13  1  0  0  0  0
 13 14  4  0  0  0  0
 14 15  4  0  0  0  0
 15 16  4  0  0  0  0
 16 17  1  0  0  0  0
 17 18  4  0  0  0  0
 18 19  4  0  0  0  0
 19 20  4  0  0  0  0
 20 21  4  0  0  0  0
 21 22  4  0  0  0  0
 17 22  4  0  0  0  0
 16 23  4  0  0  0  0
 23 24  4  0  0  0  0
 13 24  4  0  0  0  0
 12 25  1  0  0  0  0
  9 25  1  0  0  0  0
M  END
> <IC50(uM)>
2.32

> <Outcome>
0.0

> <BindingDB ID>
297770

> <BindingDB MonomerID>
155426

> <BindingDB Ligand Name>
US9006454, I51

> <Curation/DataSource>
US Patent

> <Article DOI>
?

> <PMID>
?

> <Patent Number>
US9006454

> <Authors>
Thunuguntla, SS; Subramanya, H; Kunnam, SR; Sanivaru Vijay, SR; Bingi, C; Kusanur, R; Schwarz, M; Arlt, M

> <Link to Ligand in BindingDB>
http://www.bindingdb.org/bind/chemsearch/marvin/MolStructure.jsp?monomerid=155426

> <Link to Ligand-Target Pair in BindingDB>
http://www.bindingdb.org/jsp/dbsearch/PrimarySearch_ki.jsp?energyterm=kJ/mole&tag=r21&monomerid=155426&enzyme=Dihydroorotate+dehydrogenase&column=ki&startPg=0&Increment=50&submit=Search

> <PubChem CID>
91971495

> <PubChem SID>
253658363

$$$$

  Mrv2115 07222212352D          

 32 36  0  0  0  0            999 V2000
   -7.7484    5.0775    0.0000 C   0  0  0  0  0  0  0  0  0  0  0  0
   -7.2635    4.4100    0.0000 C   0  0  0  0  0  0  0  0  0  0  0  0
   -6.4430    4.4963    0.0000 O   0  0  0  0  0  0  0  0  0  0  0  0
   -5.9581    3.8288    0.0000 C   0  0  0  0  0  0  0  0  0  0  0  0
   -6.2936    3.0751    0.0000 O   0  0  0  0  0  0  0  0  0  0  0  0
   -5.1376    3.9151    0.0000 C   0  0  0  0  0  0  0  0  0  0  0  0
   -4.8020    4.6687    0.0000 C   0  0  0  0  0  0  0  0  0  0  0  0
   -3.9816    4.7550    0.0000 C   0  0  0  0  0  0  0  0  0  0  0  0
   -3.4966    4.0875    0.0000 C   0  0  0  0  0  0  0  0  0  0  0  0
   -3.8322    3.3339    0.0000 C   0  0  0  0  0  0  0  0  0  0  0  0
   -3.3473    2.6664    0.0000 N   0  0  0  0  0  0  0  0  0  0  0  0
   -3.6022    1.8818    0.0000 N   0  0  0  0  0  0  0  0  0  0  0  0
   -2.9348    1.3969    0.0000 C   0  0  0  0  0  0  0  0  0  0  0  0
   -2.2673    1.8818    0.0000 C   0  0  0  0  0  0  0  0  0  0  0  0
   -2.5223    2.6664    0.0000 C   0  0  0  0  0  0  0  0  0  0  0  0
   -1.9702    3.2795    0.0000 C   0  0  0  0  0  0  0  0  0  0  0  0
   -1.1633    3.1080    0.0000 C   0  0  0  0  0  0  0  0  0  0  0  0
   -0.9083    2.3234    0.0000 C   0  0  0  0  0  0  0  0  0  0  0  0
   -1.4604    1.7103    0.0000 C   0  0  0  0  0  0  0  0  0  0  0  0
   -1.2054    0.9256    0.0000 N   0  0  0  0  0  0  0  0  0  0  0  0
   -0.3984    0.7541    0.0000 C   0  0  0  0  0  0  0  0  0  0  0  0
    0.1536    1.3672    0.0000 O   0  0  0  0  0  0  0  0  0  0  0  0
   -0.1435   -0.0305    0.0000 C   0  0  0  0  0  0  0  0  0  0  0  0
   -0.6284   -0.6979    0.0000 N   0  0  0  0  0  0  0  0  0  0  0  0
   -0.1435   -1.3654    0.0000 O   0  0  0  0  0  0  0  0  0  0  0  0
    0.6411   -1.1104    0.0000 C   0  0  0  0  0  0  0  0  0  0  0  0
    0.6411   -0.2854    0.0000 C   0  0  0  0  0  0  0  0  0  0  0  0
    1.3556    0.1271    0.0000 C   0  0  0  0  0  0  0  0  0  0  0  0
    2.0701   -0.2854    0.0000 C   0  0  0  0  0  0  0  0  0  0  0  0
    2.0701   -1.1104    0.0000 C   0  0  0  0  0  0  0  0  0  0  0  0
    1.3556   -1.5229    0.0000 C   0  0  0  0  0  0  0  0  0  0  0  0
   -4.6527    3.2476    0.0000 C   0  0  0  0  0  0  0  0  0  0  0  0
  1  2  1  0  0  0  0
  2  3  1  0  0  0  0
  3  4  1  0  0  0  0
  4  5  2  0  0  0  0
  4  6  1  0  0  0  0
  6  7  4  0  0  0  0
  7  8  4  0  0  0  0
  8  9  4  0  0  0  0
  9 10  4  0  0  0  0
 10 11  1  0  0  0  0
 11 12  4  0  0  0  0
 12 13  4  0  0  0  0
 13 14  4  0  0  0  0
 14 15  4  0  0  0  0
 11 15  4  0  0  0  0
 15 16  1  0  0  0  0
 16 17  1  0  0  0  0
 17 18  1  0  0  0  0
 18 19  1  0  0  0  0
 14 19  1  0  0  0  0
 19 20  1  0  0  0  0
 20 21  1  0  0  0  0
 21 22  2  0  0  0  0
 21 23  1  0  0  0  0
 23 24  4  0  0  0  0
 24 25  4  0  0  0  0
 25 26  4  0  0  0  0
 26 27  4  0  0  0  0
 23 27  4  0  0  0  0
 27 28  1  0  0  0  0
 28 29  1  0  0  0  0
 29 30  1  0  0  0  0
 30 31  1  0  0  0  0
 26 31  1  0  0  0  0
 10 32  4  0  0  0  0
  6 32  4  0  0  0  0
M  END
> <IC50(uM)>
0.03

> <Outcome>
1.0

> <BindingDB ID>
993100; 51334967

> <BindingDB MonomerID>
477602

> <BindingDB Ligand Name>
Ethyl 3-[4-(4,5,6,7-tetrahydro-1,2-benzoxazole-3-amido)-4,5,6,7-tetrahydro-1H-indazol-1-yl]benzoate::US10889564, Example 32

> <Curation/DataSource>
US Patent; ChEMBL

> <Article DOI>
?; 10.1021/acs.jmedchem.9b01658

> <PMID>
?; 32212728

> <Patent Number>
US10889564; ?

> <Authors>
Lain, S; Drummond, C; Leeuwen, IV; Haraldsson, M; Johansson, L; Sandberg, L; Yngve, U; Popova, G; Ladds, MJGW; Johansson, L; Saleh, A; Larsson, J; Sandberg, L; Sahlberg, SH; Qian, W; Gullberg, H; Garg, N; Gustavsson, AL; Haraldsson, M; Lane, D; Yngve, U; Lain, S

> <Link to Ligand in BindingDB>
http://www.bindingdb.org/bind/chemsearch/marvin/MolStructure.jsp?monomerid=477602

> <Link to Ligand-Target Pair in BindingDB>
http://www.bindingdb.org/jsp/dbsearch/PrimarySearch_ki.jsp?energyterm=kJ/mole&tag=r21&monomerid=477602&enzyme=Dihydroorotate+dehydrogenase&column=ki&startPg=0&Increment=50&submit=Search

> <PubChem CID>
129104766

> <PubChem SID>
442137219

$$$$

  Mrv2115 07222212352D          

 27 30  0  0  0  0            999 V2000
    2.1434   -2.8875    0.0000 O   0  0  0  0  0  0  0  0  0  0  0  0
    1.4289   -2.4750    0.0000 C   0  0  0  0  0  0  0  0  0  0  0  0
    0.7145   -2.8875    0.0000 O   0  0  0  0  0  0  0  0  0  0  0  0
    1.4289   -1.6500    0.0000 C   0  0  0  0  0  0  0  0  0  0  0  0
    0.7145   -1.2375    0.0000 C   0  0  0  0  0  0  0  0  0  0  0  0
    0.7145   -0.4125    0.0000 C   0  0  0  0  0  0  0  0  0  0  0  0
    0.0000    0.0000    0.0000 C   0  0  0  0  0  0  0  0  0  0  0  0
   -0.7145   -0.4125    0.0000 C   0  0  0  0  0  0  0  0  0  0  0  0
   -1.4289    0.0000    0.0000 C   0  0  0  0  0  0  0  0  0  0  0  0
   -1.4289    0.8250    0.0000 C   0  0  0  0  0  0  0  0  0  0  0  0
   -2.1434    1.2375    0.0000 O   0  0  0  0  0  0  0  0  0  0  0  0
   -2.1434    2.0625    0.0000 C   0  0  0  0  0  0  0  0  0  0  0  0
   -2.8579    2.4750    0.0000 C   0  0  0  0  0  0  0  0  0  0  0  0
   -2.8579    3.3000    0.0000 C   0  0  0  0  0  0  0  0  0  0  0  0
   -2.1434    3.7125    0.0000 C   0  0  0  0  0  0  0  0  0  0  0  0
   -1.4289    3.3000    0.0000 C   0  0  0  0  0  0  0  0  0  0  0  0
   -1.4289    2.4750    0.0000 C   0  0  0  0  0  0  0  0  0  0  0  0
   -0.7145    1.2375    0.0000 C   0  0  0  0  0  0  0  0  0  0  0  0
    0.0000    0.8250    0.0000 C   0  0  0  0  0  0  0  0  0  0  0  0
    1.4289    0.0000    0.0000 N   0  0  0  0  0  0  0  0  0  0  0  0
    2.1434   -0.4125    0.0000 C   0  0  0  0  0  0  0  0  0  0  0  0
    2.8579    0.0000    0.0000 C   0  0  0  0  0  0  0  0  0  0  0  0
    3.5724   -0.4125    0.0000 C   0  0  0  0  0  0  0  0  0  0  0  0
    3.5724   -1.2375    0.0000 C   0  0  0  0  0  0  0  0  0  0  0  0
    4.2868   -1.6500    0.0000 Cl  0  0  0  0  0  0  0  0  0  0  0  0
    2.8579   -1.6500    0.0000 C   0  0  0  0  0  0  0  0  0  0  0  0
    2.1434   -1.2375    0.0000 C   0  0  0  0  0  0  0  0  0  0  0  0
  1  2  2  0  0  0  0
  2  3  1  0  0  0  0
  2  4  1  0  0  0  0
  4  5  4  0  0  0  0
  5  6  4  0  0  0  0
  6  7  1  0  0  0  0
  7  8  4  0  0  0  0
  8  9  4  0  0  0  0
  9 10  4  0  0  0  0
 10 11  1  0  0  0  0
 11 12  1  0  0  0  0
 12 13  4  0  0  0  0
 13 14  4  0  0  0  0
 14 15  4  0  0  0  0
 15 16  4  0  0  0  0
 16 17  4  0  0  0  0
 12 17  4  0  0  0  0
 10 18  4  0  0  0  0
 18 19  4  0  0  0  0
  7 19  4  0  0  0  0
  6 20  4  0  0  0  0
 20 21  4  0  0  0  0
 21 22  4  0  0  0  0
 22 23  4  0  0  0  0
 23 24  4  0  0  0  0
 24 25  1  0  0  0  0
 24 26  4  0  0  0  0
 26 27  4  0  0  0  0
  4 27  4  0  0  0  0
 21 27  4  0  0  0  0
M  END
> <IC50(uM)>
0.095

> <Outcome>
1.0

> <BindingDB ID>
51064008

> <BindingDB MonomerID>
50434232

> <BindingDB Ligand Name>
CHEMBL2385514

> <Curation/DataSource>
ChEMBL

> <Article DOI>
10.1021/ml300464h

> <PMID>
23930152

> <Patent Number>
?

> <Authors>
Das, P; Deng, X; Zhang, L; Roth, MG; Fontoura, BM; Phillips, MA; De Brabander, JK

> <Link to Ligand in BindingDB>
http://www.bindingdb.org/bind/chemsearch/marvin/MolStructure.jsp?monomerid=50434232

> <Link to Ligand-Target Pair in BindingDB>
http://www.bindingdb.org/jsp/dbsearch/PrimarySearch_ki.jsp?energyterm=kJ/mole&tag=r21&monomerid=50434232&enzyme=Dihydroorotate+dehydrogenase&column=ki&startPg=0&Increment=50&submit=Search

> <PubChem CID>
71817131

> <PubChem SID>
175446549

$$$$

  Mrv2115 07222212352D          

 29 32  0  0  0  0            999 V2000
   -4.2868    2.4750    0.0000 C   0  0  0  0  0  0  0  0  0  0  0  0
   -3.5724    2.0625    0.0000 C   0  0  0  0  0  0  0  0  0  0  0  0
   -2.8579    2.4750    0.0000 C   0  0  0  0  0  0  0  0  0  0  0  0
   -2.1434    2.0625    0.0000 C   0  0  0  0  0  0  0  0  0  0  0  0
   -2.1434    1.2375    0.0000 C   0  0  0  0  0  0  0  0  0  0  0  0
   -1.4289    0.8250    0.0000 C   0  0  0  0  0  0  0  0  0  0  0  0
   -0.7145    1.2375    0.0000 C   0  0  0  0  0  0  0  0  0  0  0  0
    0.0000    0.8250    0.0000 C   0  0  0  0  0  0  0  0  0  0  0  0
    0.0000   -0.0000    0.0000 C   0  0  0  0  0  0  0  0  0  0  0  0
    0.7145   -0.4125    0.0000 C   0  0  0  0  0  0  0  0  0  0  0  0
    1.4289    0.0000    0.0000 N   0  0  0  0  0  0  0  0  0  0  0  0
    2.1434   -0.4125    0.0000 C   0  0  0  0  0  0  0  0  0  0  0  0
    2.8579    0.0000    0.0000 C   0  0  0  0  0  0  0  0  0  0  0  0
    3.5724   -0.4125    0.0000 C   0  0  0  0  0  0  0  0  0  0  0  0
    3.5724   -1.2375    0.0000 C   0  0  0  0  0  0  0  0  0  0  0  0
    4.2868   -1.6500    0.0000 F   0  0  0  0  0  0  0  0  0  0  0  0
    2.8579   -1.6500    0.0000 C   0  0  0  0  0  0  0  0  0  0  0  0
    2.1434   -1.2375    0.0000 C   0  0  0  0  0  0  0  0  0  0  0  0
    1.4289   -1.6500    0.0000 C   0  0  0  0  0  0  0  0  0  0  0  0
    1.4289   -2.4750    0.0000 C   0  0  0  0  0  0  0  0  0  0  0  0
    0.7145   -2.8875    0.0000 O   0  0  0  0  0  0  0  0  0  0  0  0
    2.1434   -2.8875    0.0000 O   0  0  0  0  0  0  0  0  0  0  0  0
    0.7145   -1.2375    0.0000 C   0  0  0  0  0  0  0  0  0  0  0  0
    0.0000   -1.6500    0.0000 C   0  0  0  0  0  0  0  0  0  0  0  0
   -0.7145   -0.4125    0.0000 C   0  0  0  0  0  0  0  0  0  0  0  0
   -1.4289   -0.0000    0.0000 C   0  0  0  0  0  0  0  0  0  0  0  0
   -2.8579    0.8250    0.0000 C   0  0  0  0  0  0  0  0  0  0  0  0
   -2.8579   -0.0000    0.0000 Cl  0  0  0  0  0  0  0  0  0  0  0  0
   -3.5724    1.2375    0.0000 N   0  0  0  0  0  0  0  0  0  0  0  0
  1  2  1  0  0  0  0
  2  3  4  0  0  0  0
  3  4  4  0  0  0  0
  4  5  4  0  0  0  0
  5  6  1  0  0  0  0
  6  7  4  0  0  0  0
  7  8  4  0  0  0  0
  8  9  4  0  0  0  0
  9 10  1  0  0  0  0
 10 11  4  0  0  0  0
 11 12  4  0  0  0  0
 12 13  4  0  0  0  0
 13 14  4  0  0  0  0
 14 15  4  0  0  0  0
 15 16  1  0  0  0  0
 15 17  4  0  0  0  0
 17 18  4  0  0  0  0
 12 18  4  0  0  0  0
 18 19  4  0  0  0  0
 19 20  1  0  0  0  0
 20 21  2  0  0  0  0
 20 22  1  0  0  0  0
 19 23  4  0  0  0  0
 10 23  4  0  0  0  0
 23 24  1  0  0  0  0
  9 25  4  0  0  0  0
 25 26  4  0  0  0  0
  6 26  4  0  0  0  0
  5 27  4  0  0  0  0
 27 28  1  0  0  0  0
 27 29  4  0  0  0  0
  2 29  4  0  0  0  0
M  END
> <IC50(uM)>
0.026

> <Outcome>
1.0

> <BindingDB ID>
51126204

> <BindingDB MonomerID>
50461890

> <BindingDB Ligand Name>
CHEMBL4228971

> <Curation/DataSource>
ChEMBL

> <Article DOI>
10.1021/acs.jmedchem.7b01862

> <PMID>
29727569

> <Patent Number>
?

> <Authors>
Madak, JT; Cuthbertson, CR; Miyata, Y; Tamura, S; Petrunak, EM; Stuckey, JA; Han, Y; He, M; Sun, D; Showalter, HD; Neamati, N

> <Link to Ligand in BindingDB>
http://www.bindingdb.org/bind/chemsearch/marvin/MolStructure.jsp?monomerid=50461890

> <Link to Ligand-Target Pair in BindingDB>
http://www.bindingdb.org/jsp/dbsearch/PrimarySearch_ki.jsp?energyterm=kJ/mole&tag=r21&monomerid=50461890&enzyme=Dihydroorotate+dehydrogenase&column=ki&startPg=0&Increment=50&submit=Search

> <PubChem CID>
133107894

> <PubChem SID>
433929155

$$$$

  Mrv2115 07222212352D          

 16 17  0  0  0  0            999 V2000
    2.2501    6.0027    0.0000 C   0  0  0  0  0  0  0  0  0  0  0  0
    1.5356    5.5902    0.0000 C   0  0  0  0  0  0  0  0  0  0  0  0
    1.5356    4.7652    0.0000 C   0  0  0  0  0  0  0  0  0  0  0  0
    0.8212    4.3527    0.0000 C   0  0  0  0  0  0  0  0  0  0  0  0
    0.1067    4.7652    0.0000 C   0  0  0  0  0  0  0  0  0  0  0  0
   -0.6078    4.3527    0.0000 N   0  0  0  0  0  0  0  0  0  0  0  0
   -0.6078    3.5277    0.0000 C   0  0  0  0  0  0  0  0  0  0  0  0
    0.0597    3.0428    0.0000 N   0  0  0  0  0  0  0  0  0  0  0  0
   -0.1953    2.2581    0.0000 N   0  0  0  0  0  0  0  0  0  0  0  0
   -1.0203    2.2581    0.0000 C   0  0  0  0  0  0  0  0  0  0  0  0
   -1.5052    1.5907    0.0000 C   0  0  0  0  0  0  0  0  0  0  0  0
   -1.2752    3.0428    0.0000 C   0  0  0  0  0  0  0  0  0  0  0  0
   -2.0598    3.2977    0.0000 C   0  0  0  0  0  0  0  0  0  0  0  0
   -2.8444    3.5526    0.0000 N   0  0  0  0  0  0  0  0  0  0  0  0
    0.1067    5.5902    0.0000 C   0  0  0  0  0  0  0  0  0  0  0  0
    0.8212    6.0027    0.0000 C   0  0  0  0  0  0  0  0  0  0  0  0
  1  2  1  0  0  0  0
  2  3  4  0  0  0  0
  3  4  4  0  0  0  0
  4  5  4  0  0  0  0
  5  6  1  0  0  0  0
  6  7  1  0  0  0  0
  7  8  4  0  0  0  0
  8  9  4  0  0  0  0
  9 10  4  0  0  0  0
 10 11  1  0  0  0  0
 10 12  4  0  0  0  0
  7 12  4  0  0  0  0
 12 13  1  0  0  0  0
 13 14  3  0  0  0  0
  5 15  4  0  0  0  0
 15 16  4  0  0  0  0
  2 16  4  0  0  0  0
M  STY  1   1 DAT
M  SAL   1  1   8
M  SDT   1 MRV_IMPLICIT_H                                        
M  SDD   1     0.5304   -0.4125    DR    ALL  0       0  
M  SED   1 IMPL_H1
M  END
> <IC50(uM)>
12.1

> <Outcome>
0.0

> <BindingDB ID>
50786797

> <BindingDB MonomerID>
50066609

> <BindingDB Ligand Name>
5-Methyl-3-p-tolylamino-1H-pyrazole-4-carbonitrile::CHEMBL330901

> <Curation/DataSource>
ChEMBL

> <Article DOI>
10.1021/jm981028c

> <PMID>
9719606

> <Patent Number>
?

> <Authors>
Papageorgiou, C; Albert, R; Floersheim, P; Lemaire, M; Bitch, F; Weber, HP; Andersen, E; Hungerford, V; Schreier, MH

> <Link to Ligand in BindingDB>
http://www.bindingdb.org/bind/chemsearch/marvin/MolStructure.jsp?monomerid=50066609

> <Link to Ligand-Target Pair in BindingDB>
http://www.bindingdb.org/jsp/dbsearch/PrimarySearch_ki.jsp?energyterm=kJ/mole&tag=r21&monomerid=50066609&enzyme=Dihydroorotate+dehydrogenase&column=ki&startPg=0&Increment=50&submit=Search

> <PubChem CID>
10680043

> <PubChem SID>
103961229

$$$$

  Mrv2115 07222212352D          

 33 35  0  0  0  0            999 V2000
    2.1434   -3.7125    0.0000 C   0  0  0  0  0  0  0  0  0  0  0  0
    2.8579   -4.1250    0.0000 C   0  0  0  0  0  0  0  0  0  0  0  0
    3.5724   -3.7125    0.0000 C   0  0  0  0  0  0  0  0  0  0  0  0
    4.2868   -4.1250    0.0000 C   0  0  0  0  0  0  0  0  0  0  0  0
    4.2868   -4.9500    0.0000 C   0  0  0  0  0  0  0  0  0  0  0  0
    5.0013   -3.7125    0.0000 O   0  0  0  0  0  0  0  0  0  0  0  0
    5.0013   -2.8875    0.0000 C   0  0  0  0  0  0  0  0  0  0  0  0
    4.2868   -2.4750    0.0000 C   0  0  0  0  0  0  0  0  0  0  0  0
    4.2868   -1.6500    0.0000 C   0  0  0  0  0  0  0  0  0  0  0  0
    3.5724   -1.2375    0.0000 N   0  0  0  0  0  0  0  0  0  0  0  0
    2.8187   -1.5731    0.0000 N   0  0  0  0  0  0  0  0  0  0  0  0
    2.2666   -0.9600    0.0000 C   0  0  0  0  0  0  0  0  0  0  0  0
    1.4462   -1.0462    0.0000 C   0  0  0  0  0  0  0  0  0  0  0  0
    1.1106   -1.7999    0.0000 C   0  0  0  0  0  0  0  0  0  0  0  0
    2.6791   -0.2455    0.0000 N   0  0  0  0  0  0  0  0  0  0  0  0
    2.3436    0.5082    0.0000 C   0  0  0  0  0  0  0  0  0  0  0  0
    3.4861   -0.4170    0.0000 C   0  0  0  0  0  0  0  0  0  0  0  0
    4.0992    0.1350    0.0000 O   0  0  0  0  0  0  0  0  0  0  0  0
    5.0013   -1.2375    0.0000 C   0  0  0  0  0  0  0  0  0  0  0  0
    5.0013   -0.4125    0.0000 F   0  0  0  0  0  0  0  0  0  0  0  0
    5.7158   -1.6500    0.0000 C   0  0  0  0  0  0  0  0  0  0  0  0
    5.7158   -2.4750    0.0000 C   0  0  0  0  0  0  0  0  0  0  0  0
    6.4302   -2.8875    0.0000 C   0  0  0  0  0  0  0  0  0  0  0  0
    6.4302   -3.7125    0.0000 O   0  0  0  0  0  0  0  0  0  0  0  0
    7.1447   -2.4750    0.0000 N   0  0  0  0  0  0  0  0  0  0  0  0
    7.8592   -2.8875    0.0000 C   0  0  0  0  0  0  0  0  0  0  0  0
    8.5737   -2.4750    0.0000 C   0  0  0  0  0  0  0  0  0  0  0  0
    9.2881   -2.8875    0.0000 C   0  0  0  0  0  0  0  0  0  0  0  0
    9.2881   -3.7125    0.0000 C   0  0  0  0  0  0  0  0  0  0  0  0
   10.0026   -4.1250    0.0000 C   0  0  0  0  0  0  0  0  0  0  0  0
   10.7171   -3.7125    0.0000 C   0  0  0  0  0  0  0  0  0  0  0  0
    8.5737   -4.1250    0.0000 C   0  0  0  0  0  0  0  0  0  0  0  0
    7.8592   -3.7125    0.0000 C   0  0  0  0  0  0  0  0  0  0  0  0
  1  2  1  0  0  0  0
  2  3  1  0  0  0  0
  3  4  1  0  0  0  0
  4  5  1  0  0  0  0
  4  6  1  0  0  0  0
  6  7  1  0  0  0  0
  7  8  4  0  0  0  0
  8  9  4  0  0  0  0
  9 10  1  0  0  0  0
 10 11  4  0  0  0  0
 11 12  4  0  0  0  0
 12 13  1  0  0  0  0
 13 14  1  0  0  0  0
 12 15  4  0  0  0  0
 15 16  1  0  0  0  0
 15 17  4  0  0  0  0
 10 17  4  0  0  0  0
 17 18  2  0  0  0  0
  9 19  4  0  0  0  0
 19 20  1  0  0  0  0
 19 21  4  0  0  0  0
 21 22  4  0  0  0  0
  7 22  4  0  0  0  0
 22 23  1  0  0  0  0
 23 24  2  0  0  0  0
 23 25  1  0  0  0  0
 25 26  1  0  0  0  0
 26 27  4  0  0  0  0
 27 28  4  0  0  0  0
 28 29  4  0  0  0  0
 29 30  1  0  0  0  0
 30 31  1  0  0  0  0
 29 32  4  0  0  0  0
 32 33  4  0  0  0  0
 26 33  4  0  0  0  0
M  END
> <IC50(uM)>
0.06699999999999999

> <Outcome>
1.0

> <BindingDB ID>
1098654; 972500; 972501; 1098655

> <BindingDB MonomerID>
470380

> <BindingDB Ligand Name>
4-(3-ethyl-4-methyl-5-oxo-4,5-dihydro-1H-1,2,4-triazol-1-yl)-N-(4-ethylphenyl)-5-fluoro-2-[(2S)-pentan-2-yloxy]benzamide::US10815215, Example 39::US11130745, Example 39; 4-(3-ethyl-4-methyl-5-oxo-4,5-dihydro-1H-1,2,4-triazol-1-yl)-N-(4-ethylphenyl)-5-fluoro-2-[(2S)-pentan-2-yloxy]benzamide::US10815215, Example 39

> <Curation/DataSource>
US Patent

> <Article DOI>
?

> <PMID>
?

> <Patent Number>
US11130745; US10815215

> <Authors>
Gradl, SN; Nguyen, D; Eis, K; Gunther, J; Stellfeld, T; Janzer, A; Christian, S; Muller, T; Sheikh, SE; Sykes, DB; Ferrara, SJ; Krober, M; Merz, C; Niehues, M; Schafer, M; Zimmermann, K; Nising, CF; Gradl, SN; Nguyen, D; Eis, K; Gunther, J; Stellfeld, T; Janzer, A; Christian, S; Muller, T; Sheikh, SE; Zhou, HJ; Zhao, C; Sykes, DB; Ferrara, SJ; Liu, K; Krober, M; Merz, C; Niehues, M; Schafer, M; Zimmermann, K; Nising, CF

> <Link to Ligand in BindingDB>
http://www.bindingdb.org/bind/chemsearch/marvin/MolStructure.jsp?monomerid=470380

> <Link to Ligand-Target Pair in BindingDB>
http://www.bindingdb.org/jsp/dbsearch/PrimarySearch_ki.jsp?energyterm=kJ/mole&tag=r21&monomerid=470380&enzyme=Dihydroorotate+dehydrogenase&column=ki&startPg=0&Increment=50&submit=Search

> <PubChem CID>
134470346

> <PubChem SID>
441609557

$$$$

  Mrv2115 07222212352D          

 20 21  0  0  0  0            999 V2000
   -0.1067   -0.0616    0.0000 C   0  0  0  0  0  0  0  0  0  0  0  0
    0.6078   -0.4741    0.0000 C   0  0  0  0  0  0  0  0  0  0  0  0
    1.3222   -0.0616    0.0000 O   0  0  0  0  0  0  0  0  0  0  0  0
    2.0367   -0.4741    0.0000 C   0  0  0  0  0  0  0  0  0  0  0  0
    2.7512   -0.0616    0.0000 O   0  0  0  0  0  0  0  0  0  0  0  0
    2.0367   -1.2991    0.0000 C   0  0  0  0  0  0  0  0  0  0  0  0
    1.3693   -1.7840    0.0000 C   0  0  0  0  0  0  0  0  0  0  0  0
    0.5846   -1.5291    0.0000 O   0  0  0  0  0  0  0  0  0  0  0  0
    1.6242   -2.5687    0.0000 C   0  0  0  0  0  0  0  0  0  0  0  0
    2.4492   -2.5687    0.0000 O   0  0  0  0  0  0  0  0  0  0  0  0
    2.7041   -1.7840    0.0000 C   0  0  0  0  0  0  0  0  0  0  0  0
    3.4888   -1.5291    0.0000 N   0  0  0  0  0  0  0  0  0  0  0  0
    4.1019   -2.0811    0.0000 C   0  0  0  0  0  0  0  0  0  0  0  0
    4.8865   -1.8262    0.0000 C   0  0  0  0  0  0  0  0  0  0  0  0
    5.4996   -2.3782    0.0000 C   0  0  0  0  0  0  0  0  0  0  0  0
    5.3281   -3.1852    0.0000 C   0  0  0  0  0  0  0  0  0  0  0  0
    5.9411   -3.7372    0.0000 C   0  0  0  0  0  0  0  0  0  0  0  0
    4.5434   -3.4401    0.0000 C   0  0  0  0  0  0  0  0  0  0  0  0
    4.3719   -4.2471    0.0000 C   0  0  0  0  0  0  0  0  0  0  0  0
    3.9303   -2.8881    0.0000 C   0  0  0  0  0  0  0  0  0  0  0  0
  1  2  1  0  0  0  0
  2  3  1  0  0  0  0
  3  4  1  0  0  0  0
  4  5  2  0  0  0  0
  4  6  1  0  0  0  0
  6  7  4  0  0  0  0
  7  8  1  0  0  0  0
  7  9  4  0  0  0  0
  9 10  4  0  0  0  0
 10 11  4  0  0  0  0
  6 11  4  0  0  0  0
 11 12  1  0  0  0  0
 12 13  1  0  0  0  0
 13 14  4  0  0  0  0
 14 15  4  0  0  0  0
 15 16  4  0  0  0  0
 16 17  1  0  0  0  0
 16 18  4  0  0  0  0
 18 19  1  0  0  0  0
 18 20  4  0  0  0  0
 13 20  4  0  0  0  0
M  END
> <IC50(uM)>
50.0

> <Outcome>
0.0

> <BindingDB ID>
51079144

> <BindingDB MonomerID>
50441252

> <BindingDB Ligand Name>
CHEMBL2431497

> <Curation/DataSource>
ChEMBL

> <Article DOI>
10.1021/jm400938g

> <PMID>
24073986

> <Patent Number>
?

> <Authors>
Xu, M; Zhu, J; Diao, Y; Zhou, H; Ren, X; Sun, D; Huang, J; Han, D; Zhao, Z; Zhu, L; Xu, Y; Li, H

> <Link to Ligand in BindingDB>
http://www.bindingdb.org/bind/chemsearch/marvin/MolStructure.jsp?monomerid=50441252

> <Link to Ligand-Target Pair in BindingDB>
http://www.bindingdb.org/jsp/dbsearch/PrimarySearch_ki.jsp?energyterm=kJ/mole&tag=r21&monomerid=50441252&enzyme=Dihydroorotate+dehydrogenase&column=ki&startPg=0&Increment=50&submit=Search

> <PubChem CID>
91898813

> <PubChem SID>
175453569

$$$$

  Mrv2115 07222212352D          

 23 24  0  0  0  0            999 V2000
    0.7145   -0.4125    0.0000 C   0  0  0  0  0  0  0  0  0  0  0  0
    0.7145   -1.2375    0.0000 N   0  0  0  0  0  0  0  0  0  0  0  0
    1.4289   -1.6500    0.0000 C   0  0  0  0  0  0  0  0  0  0  0  0
    2.1434   -1.2375    0.0000 O   0  0  0  0  0  0  0  0  0  0  0  0
    1.4289   -2.4750    0.0000 C   0  0  0  0  0  0  0  0  0  0  0  0
    2.1434   -2.8875    0.0000 C   0  0  0  0  0  0  0  0  0  0  0  0
    2.1434   -3.7125    0.0000 C   0  0  0  0  0  0  0  0  0  0  0  0
    1.4289   -4.1250    0.0000 C   0  0  0  0  0  0  0  0  0  0  0  0
    1.4289   -4.9500    0.0000 C   0  0  0  0  0  0  0  0  0  0  0  0
    2.1434   -5.3625    0.0000 C   0  0  0  0  0  0  0  0  0  0  0  0
    2.1434   -6.1875    0.0000 C   0  0  0  0  0  0  0  0  0  0  0  0
    2.8579   -6.6000    0.0000 C   0  0  0  0  0  0  0  0  0  0  0  0
    3.5724   -6.1875    0.0000 C   0  0  0  0  0  0  0  0  0  0  0  0
    4.2868   -6.6000    0.0000 O   0  0  0  0  0  0  0  0  0  0  0  0
    3.5724   -5.3625    0.0000 O   0  0  0  0  0  0  0  0  0  0  0  0
    2.8579   -7.4250    0.0000 N   0  0  0  0  0  0  0  0  0  0  0  0
    2.1434   -7.8375    0.0000 C   0  0  0  0  0  0  0  0  0  0  0  0
    2.1434   -8.6625    0.0000 O   0  0  0  0  0  0  0  0  0  0  0  0
    1.4289   -7.4250    0.0000 N   0  0  0  0  0  0  0  0  0  0  0  0
    1.4289   -6.6000    0.0000 C   0  0  0  0  0  0  0  0  0  0  0  0
    0.7145   -6.1875    0.0000 O   0  0  0  0  0  0  0  0  0  0  0  0
    0.7145   -3.7125    0.0000 C   0  0  0  0  0  0  0  0  0  0  0  0
    0.7145   -2.8875    0.0000 C   0  0  0  0  0  0  0  0  0  0  0  0
  1  2  1  0  0  0  0
  2  3  1  0  0  0  0
  3  4  2  0  0  0  0
  3  5  1  0  0  0  0
  5  6  4  0  0  0  0
  6  7  4  0  0  0  0
  7  8  4  0  0  0  0
  8  9  1  0  0  0  0
  9 10  1  0  0  0  0
 10 11  1  0  0  0  0
 11 12  4  0  0  0  0
 12 13  1  0  0  0  0
 13 14  2  0  0  0  0
 13 15  1  0  0  0  0
 12 16  4  0  0  0  0
 16 17  4  0  0  0  0
 17 18  2  0  0  0  0
 17 19  4  0  0  0  0
 19 20  4  0  0  0  0
 11 20  4  0  0  0  0
 20 21  2  0  0  0  0
  8 22  4  0  0  0  0
 22 23  4  0  0  0  0
  5 23  4  0  0  0  0
M  STY  2   1 DAT   2 DAT
M  SAL   1  1  16
M  SDT   1 MRV_IMPLICIT_H                                        
M  SDD   1     0.5304   -0.4125    DR    ALL  0       0  
M  SED   1 IMPL_H1
M  SAL   2  1  19
M  SDT   2 MRV_IMPLICIT_H                                        
M  SDD   2     0.5304   -0.4125    DR    ALL  0       0  
M  SED   2 IMPL_H1
M  END
> <IC50(uM)>
1.0

> <Outcome>
1.0

> <BindingDB ID>
50555389

> <BindingDB MonomerID>
50211719

> <BindingDB Ligand Name>
CHEMBL3946910

> <Curation/DataSource>
ChEMBL

> <Article DOI>
10.1016/j.bmc.2017.01.009

> <PMID>
28118956

> <Patent Number>
?

> <Authors>
Inaoka, DK; Iida, M; Hashimoto, S; Tabuchi, T; Kuranaga, T; Balogun, EO; Honma, T; Tanaka, A; Harada, S; Nara, T; Kita, K; Inoue, M

> <Link to Ligand in BindingDB>
http://www.bindingdb.org/bind/chemsearch/marvin/MolStructure.jsp?monomerid=50211719

> <Link to Ligand-Target Pair in BindingDB>
http://www.bindingdb.org/jsp/dbsearch/PrimarySearch_ki.jsp?energyterm=kJ/mole&tag=r21&monomerid=50211719&enzyme=Dihydroorotate+dehydrogenase&column=ki&startPg=0&Increment=50&submit=Search

> <PubChem CID>
134146866

> <PubChem SID>
375983062

$$$$

  Mrv2115 07222212352D          

 21 23  0  0  0  0            999 V2000
   -1.4087    0.0165    0.0000 C   0  0  0  0  0  0  0  0  0  0  0  0
   -0.5837    0.0165    0.0000 C   0  0  0  0  0  0  0  0  0  0  0  0
   -0.1712   -0.6979    0.0000 O   0  0  0  0  0  0  0  0  0  0  0  0
    0.6538   -0.6979    0.0000 C   0  0  0  0  0  0  0  0  0  0  0  0
    1.1387   -0.0305    0.0000 N   0  0  0  0  0  0  0  0  0  0  0  0
    1.9233   -0.2854    0.0000 C   0  0  0  0  0  0  0  0  0  0  0  0
    2.6378    0.1271    0.0000 N   0  0  0  0  0  0  0  0  0  0  0  0
    3.3523   -0.2854    0.0000 C   0  0  0  0  0  0  0  0  0  0  0  0
    4.0668    0.1271    0.0000 C   0  0  0  0  0  0  0  0  0  0  0  0
    3.3523   -1.1104    0.0000 C   0  0  0  0  0  0  0  0  0  0  0  0
    2.6378   -1.5229    0.0000 C   0  0  0  0  0  0  0  0  0  0  0  0
    2.6378   -2.3479    0.0000 N   0  0  0  0  0  0  0  0  0  0  0  0
    1.9233   -2.7604    0.0000 C   0  0  0  0  0  0  0  0  0  0  0  0
    1.9233   -3.5854    0.0000 C   0  0  0  0  0  0  0  0  0  0  0  0
    1.2089   -3.9979    0.0000 C   0  0  0  0  0  0  0  0  0  0  0  0
    0.4944   -3.5854    0.0000 C   0  0  0  0  0  0  0  0  0  0  0  0
   -0.2201   -3.9979    0.0000 Cl  0  0  0  0  0  0  0  0  0  0  0  0
    0.4944   -2.7604    0.0000 C   0  0  0  0  0  0  0  0  0  0  0  0
    1.2089   -2.3479    0.0000 C   0  0  0  0  0  0  0  0  0  0  0  0
    1.9233   -1.1104    0.0000 N   0  0  0  0  0  0  0  0  0  0  0  0
    1.1387   -1.3654    0.0000 N   0  0  0  0  0  0  0  0  0  0  0  0
  1  2  1  0  0  0  0
  2  3  1  0  0  0  0
  3  4  1  0  0  0  0
  4  5  4  0  0  0  0
  5  6  4  0  0  0  0
  6  7  4  0  0  0  0
  7  8  4  0  0  0  0
  8  9  1  0  0  0  0
  8 10  4  0  0  0  0
 10 11  4  0  0  0  0
 11 12  1  0  0  0  0
 12 13  1  0  0  0  0
 13 14  4  0  0  0  0
 14 15  4  0  0  0  0
 15 16  4  0  0  0  0
 16 17  1  0  0  0  0
 16 18  4  0  0  0  0
 18 19  4  0  0  0  0
 13 19  4  0  0  0  0
 11 20  4  0  0  0  0
  6 20  4  0  0  0  0
 20 21  4  0  0  0  0
  4 21  4  0  0  0  0
M  END
> <IC50(uM)>
100.0

> <Outcome>
0.0

> <BindingDB ID>
50720152

> <BindingDB MonomerID>
50365222

> <BindingDB Ligand Name>
CHEMBL1956471

> <Curation/DataSource>
ChEMBL

> <Article DOI>
10.1021/jm200592f

> <PMID>
21696174

> <Patent Number>
?

> <Authors>
Coteron, JM; Marco, M; Esquivias, J; Deng, X; White, KL; White, J; Koltun, M; El Mazouni, F; Kokkonda, S; Katneni, K; Bhamidipati, R; Shackleford, DM; Angulo-Barturen, I; Ferrer, SB; Jimenez-Diaz, MB; Gamo, FJ; Goldsmith, EJ; Charman, WN; Bathurst, I; Floyd, D; Matthews, D; Burrows, JN; Rathod, PK; Charman, SA; Phillips, MA

> <Link to Ligand in BindingDB>
http://www.bindingdb.org/bind/chemsearch/marvin/MolStructure.jsp?monomerid=50365222

> <Link to Ligand-Target Pair in BindingDB>
http://www.bindingdb.org/jsp/dbsearch/PrimarySearch_ki.jsp?energyterm=kJ/mole&tag=r21&monomerid=50365222&enzyme=Dihydroorotate+dehydrogenase&column=ki&startPg=0&Increment=50&submit=Search

> <PubChem CID>
53392884

> <PubChem SID>
136969284

$$$$

  Mrv2115 07222212352D          

 20 21  0  0  0  0            999 V2000
    2.0367   -0.4741    0.0000 C   0  0  0  0  0  0  0  0  0  0  0  0
    2.0367   -1.2991    0.0000 C   0  0  0  0  0  0  0  0  0  0  0  0
    2.7041   -1.7840    0.0000 N   0  0  0  0  0  0  0  0  0  0  0  0
    2.4492   -2.5687    0.0000 N   0  0  0  0  0  0  0  0  0  0  0  0
    1.6242   -2.5687    0.0000 C   0  0  0  0  0  0  0  0  0  0  0  0
    1.1393   -3.2361    0.0000 N   0  0  0  0  0  0  0  0  0  0  0  0
    0.3188   -3.1499    0.0000 C   0  0  0  0  0  0  0  0  0  0  0  0
   -0.1661   -3.8173    0.0000 C   0  0  0  0  0  0  0  0  0  0  0  0
   -0.9866   -3.7311    0.0000 C   0  0  0  0  0  0  0  0  0  0  0  0
   -1.3222   -2.9774    0.0000 C   0  0  0  0  0  0  0  0  0  0  0  0
   -2.1426   -2.8911    0.0000 C   0  0  0  0  0  0  0  0  0  0  0  0
   -2.9631   -2.8049    0.0000 F   0  0  0  0  0  0  0  0  0  0  0  0
   -2.0564   -2.0707    0.0000 F   0  0  0  0  0  0  0  0  0  0  0  0
   -2.2289   -3.7116    0.0000 F   0  0  0  0  0  0  0  0  0  0  0  0
   -0.8372   -2.3099    0.0000 C   0  0  0  0  0  0  0  0  0  0  0  0
   -1.1728   -1.5563    0.0000 Br  0  0  0  0  0  0  0  0  0  0  0  0
   -0.0168   -2.3962    0.0000 C   0  0  0  0  0  0  0  0  0  0  0  0
    1.3693   -1.7840    0.0000 C   0  0  0  0  0  0  0  0  0  0  0  0
    0.5846   -1.5291    0.0000 C   0  0  0  0  0  0  0  0  0  0  0  0
   -0.2000   -1.2742    0.0000 N   0  0  0  0  0  0  0  0  0  0  0  0
  1  2  1  0  0  0  0
  2  3  4  0  0  0  0
  3  4  4  0  0  0  0
  4  5  4  0  0  0  0
  5  6  1  0  0  0  0
  6  7  1  0  0  0  0
  7  8  4  0  0  0  0
  8  9  4  0  0  0  0
  9 10  4  0  0  0  0
 10 11  1  0  0  0  0
 11 12  1  0  0  0  0
 11 13  1  0  0  0  0
 11 14  1  0  0  0  0
 10 15  4  0  0  0  0
 15 16  1  0  0  0  0
 15 17  4  0  0  0  0
  7 17  4  0  0  0  0
  5 18  4  0  0  0  0
  2 18  4  0  0  0  0
 18 19  1  0  0  0  0
 19 20  3  0  0  0  0
M  STY  1   1 DAT
M  SAL   1  1   4
M  SDT   1 MRV_IMPLICIT_H                                        
M  SDD   1     0.5304   -0.4125    DR    ALL  0       0  
M  SED   1 IMPL_H1
M  END
> <IC50(uM)>
50.0

> <Outcome>
0.0

> <BindingDB ID>
50786791

> <BindingDB MonomerID>
50066611

> <BindingDB Ligand Name>
3-(3-Bromo-4-trifluoromethyl-phenylamino)-5-methyl-1H-pyrazole-4-carbonitrile::CHEMBL118997

> <Curation/DataSource>
ChEMBL

> <Article DOI>
10.1021/jm981028c

> <PMID>
9719606

> <Patent Number>
?

> <Authors>
Papageorgiou, C; Albert, R; Floersheim, P; Lemaire, M; Bitch, F; Weber, HP; Andersen, E; Hungerford, V; Schreier, MH

> <Link to Ligand in BindingDB>
http://www.bindingdb.org/bind/chemsearch/marvin/MolStructure.jsp?monomerid=50066611

> <Link to Ligand-Target Pair in BindingDB>
http://www.bindingdb.org/jsp/dbsearch/PrimarySearch_ki.jsp?energyterm=kJ/mole&tag=r21&monomerid=50066611&enzyme=Dihydroorotate+dehydrogenase&column=ki&startPg=0&Increment=50&submit=Search

> <PubChem CID>
10759927

> <PubChem SID>
103961231

$$$$

  Mrv2115 07222212352D          

 31 32  0  0  0  0            999 V2000
    0.0000   -4.9500    0.0000 C   0  0  0  0  0  0  0  0  0  0  0  0
    0.7145   -4.5375    0.0000 C   0  0  0  0  0  0  0  0  0  0  0  0
    1.4289   -4.9500    0.0000 C   0  0  0  0  0  0  0  0  0  0  0  0
    0.7145   -3.7125    0.0000 C   0  0  0  0  0  0  0  0  0  0  0  0
    1.4289   -3.3000    0.0000 C   0  0  0  0  0  0  0  0  0  0  0  0
    2.1434   -3.7125    0.0000 C   0  0  0  0  0  0  0  0  0  0  0  0
    1.4289   -2.4750    0.0000 O   0  0  0  0  0  0  0  0  0  0  0  0
    0.7145   -2.0625    0.0000 C   0  0  0  0  0  0  0  0  0  0  0  0
    0.0000   -2.4750    0.0000 C   0  0  0  0  0  0  0  0  0  0  0  0
   -0.7145   -2.0625    0.0000 C   0  0  0  0  0  0  0  0  0  0  0  0
   -1.4289   -2.4750    0.0000 N   0  0  0  0  0  0  0  0  0  0  0  0
   -1.5152   -3.2955    0.0000 N   0  0  0  0  0  0  0  0  0  0  0  0
   -2.3221   -3.4670    0.0000 C   0  0  0  0  0  0  0  0  0  0  0  0
   -2.6577   -4.2207    0.0000 C   0  0  0  0  0  0  0  0  0  0  0  0
   -3.4782   -4.3069    0.0000 C   0  0  0  0  0  0  0  0  0  0  0  0
   -2.1728   -4.8881    0.0000 C   0  0  0  0  0  0  0  0  0  0  0  0
   -2.7346   -2.7525    0.0000 N   0  0  0  0  0  0  0  0  0  0  0  0
   -3.5551   -2.6663    0.0000 C   0  0  0  0  0  0  0  0  0  0  0  0
   -2.1826   -2.1394    0.0000 C   0  0  0  0  0  0  0  0  0  0  0  0
   -2.3541   -1.3325    0.0000 O   0  0  0  0  0  0  0  0  0  0  0  0
   -0.7145   -1.2375    0.0000 C   0  0  0  0  0  0  0  0  0  0  0  0
   -1.4289   -0.8250    0.0000 F   0  0  0  0  0  0  0  0  0  0  0  0
    0.0000   -0.8250    0.0000 C   0  0  0  0  0  0  0  0  0  0  0  0
    0.7145   -1.2375    0.0000 C   0  0  0  0  0  0  0  0  0  0  0  0
    1.4289   -0.8250    0.0000 C   0  0  0  0  0  0  0  0  0  0  0  0
    1.4289    0.0000    0.0000 O   0  0  0  0  0  0  0  0  0  0  0  0
    2.1434   -1.2375    0.0000 N   0  0  0  0  0  0  0  0  0  0  0  0
    2.8579   -0.8250    0.0000 C   0  0  0  0  0  0  0  0  0  0  0  0
    2.8579    0.0000    0.0000 C   0  0  0  0  0  0  0  0  0  0  0  0
    3.5724   -1.2375    0.0000 C   0  0  0  0  0  0  0  0  0  0  0  0
    3.5724   -2.0625    0.0000 N   0  0  0  0  0  0  0  0  0  0  0  0
  1  2  1  0  0  0  0
  2  3  1  0  0  0  0
  2  4  1  0  0  0  0
  4  5  1  0  0  0  0
  5  6  1  0  0  0  0
  5  7  1  0  0  0  0
  7  8  1  0  0  0  0
  8  9  4  0  0  0  0
  9 10  4  0  0  0  0
 10 11  1  0  0  0  0
 11 12  4  0  0  0  0
 12 13  4  0  0  0  0
 13 14  1  0  0  0  0
 14 15  1  0  0  0  0
 14 16  1  0  0  0  0
 13 17  4  0  0  0  0
 17 18  1  0  0  0  0
 17 19  4  0  0  0  0
 11 19  4  0  0  0  0
 19 20  2  0  0  0  0
 10 21  4  0  0  0  0
 21 22  1  0  0  0  0
 21 23  4  0  0  0  0
 23 24  4  0  0  0  0
  8 24  4  0  0  0  0
 24 25  1  0  0  0  0
 25 26  2  0  0  0  0
 25 27  1  0  0  0  0
 27 28  1  0  0  0  0
 28 29  1  0  0  0  0
 28 30  1  0  0  0  0
 30 31  1  0  0  0  0
M  END
> <IC50(uM)>
20.0

> <Outcome>
0.0

> <BindingDB ID>
1098776; 972622

> <BindingDB MonomerID>
470506

> <BindingDB Ligand Name>
US10815215, Example 162::US11130745, Example 162; US10815215, Example 162

> <Curation/DataSource>
US Patent

> <Article DOI>
?

> <PMID>
?

> <Patent Number>
US11130745; US10815215

> <Authors>
Gradl, SN; Nguyen, D; Eis, K; Gunther, J; Stellfeld, T; Janzer, A; Christian, S; Muller, T; Sheikh, SE; Sykes, DB; Ferrara, SJ; Krober, M; Merz, C; Niehues, M; Schafer, M; Zimmermann, K; Nising, CF; Gradl, SN; Nguyen, D; Eis, K; Gunther, J; Stellfeld, T; Janzer, A; Christian, S; Muller, T; Sheikh, SE; Zhou, HJ; Zhao, C; Sykes, DB; Ferrara, SJ; Liu, K; Krober, M; Merz, C; Niehues, M; Schafer, M; Zimmermann, K; Nising, CF

> <Link to Ligand in BindingDB>
http://www.bindingdb.org/bind/chemsearch/marvin/MolStructure.jsp?monomerid=470506

> <Link to Ligand-Target Pair in BindingDB>
http://www.bindingdb.org/jsp/dbsearch/PrimarySearch_ki.jsp?energyterm=kJ/mole&tag=r21&monomerid=470506&enzyme=Dihydroorotate+dehydrogenase&column=ki&startPg=0&Increment=50&submit=Search

> <PubChem CID>
134470169

> <PubChem SID>
441609683

$$$$

  Mrv2115 07222212352D          

 26 28  0  0  0  0            999 V2000
    1.4289   -4.1250    0.0000 C   0  0  0  0  0  0  0  0  0  0  0  0
    1.4289   -4.9500    0.0000 N   0  0  0  0  0  0  0  0  0  0  0  0
    2.0964   -5.4349    0.0000 N   0  0  0  0  0  0  0  0  0  0  0  0
    1.8414   -6.2195    0.0000 C   0  0  0  0  0  0  0  0  0  0  0  0
    2.3264   -6.8870    0.0000 O   0  0  0  0  0  0  0  0  0  0  0  0
    1.0164   -6.2195    0.0000 C   0  0  0  0  0  0  0  0  0  0  0  0
    0.5315   -6.8870    0.0000 C   0  0  0  0  0  0  0  0  0  0  0  0
   -0.2890   -6.8007    0.0000 O   0  0  0  0  0  0  0  0  0  0  0  0
    0.8671   -7.6407    0.0000 N   0  0  0  0  0  0  0  0  0  0  0  0
    0.3822   -8.3081    0.0000 C   0  0  0  0  0  0  0  0  0  0  0  0
    0.7177   -9.0618    0.0000 C   0  0  0  0  0  0  0  0  0  0  0  0
    1.5382   -9.1480    0.0000 F   0  0  0  0  0  0  0  0  0  0  0  0
    0.2328   -9.7292    0.0000 C   0  0  0  0  0  0  0  0  0  0  0  0
    0.5683  -10.4829    0.0000 F   0  0  0  0  0  0  0  0  0  0  0  0
   -0.5877   -9.6430    0.0000 C   0  0  0  0  0  0  0  0  0  0  0  0
   -1.0726  -10.3104    0.0000 C   0  0  0  0  0  0  0  0  0  0  0  0
   -0.7371  -11.0641    0.0000 C   0  0  0  0  0  0  0  0  0  0  0  0
   -1.2220  -11.7315    0.0000 C   0  0  0  0  0  0  0  0  0  0  0  0
   -2.0425  -11.6453    0.0000 C   0  0  0  0  0  0  0  0  0  0  0  0
   -2.3780  -10.8916    0.0000 C   0  0  0  0  0  0  0  0  0  0  0  0
   -1.8931  -10.2242    0.0000 C   0  0  0  0  0  0  0  0  0  0  0  0
   -0.9232   -8.8893    0.0000 C   0  0  0  0  0  0  0  0  0  0  0  0
   -1.7437   -8.8031    0.0000 F   0  0  0  0  0  0  0  0  0  0  0  0
   -0.4383   -8.2219    0.0000 C   0  0  0  0  0  0  0  0  0  0  0  0
   -0.7739   -7.4682    0.0000 F   0  0  0  0  0  0  0  0  0  0  0  0
    0.7615   -5.4349    0.0000 N   0  0  0  0  0  0  0  0  0  0  0  0
  1  2  1  0  0  0  0
  2  3  4  0  0  0  0
  3  4  4  0  0  0  0
  4  5  1  0  0  0  0
  4  6  4  0  0  0  0
  6  7  1  0  0  0  0
  7  8  2  0  0  0  0
  7  9  1  0  0  0  0
  9 10  1  0  0  0  0
 10 11  4  0  0  0  0
 11 12  1  0  0  0  0
 11 13  4  0  0  0  0
 13 14  1  0  0  0  0
 13 15  4  0  0  0  0
 15 16  1  0  0  0  0
 16 17  4  0  0  0  0
 17 18  4  0  0  0  0
 18 19  4  0  0  0  0
 19 20  4  0  0  0  0
 20 21  4  0  0  0  0
 16 21  4  0  0  0  0
 15 22  4  0  0  0  0
 22 23  1  0  0  0  0
 22 24  4  0  0  0  0
 10 24  4  0  0  0  0
 24 25  1  0  0  0  0
  6 26  4  0  0  0  0
  2 26  4  0  0  0  0
M  END
> <IC50(uM)>
0.045

> <Outcome>
1.0

> <BindingDB ID>
50990479

> <BindingDB MonomerID>
50235593

> <BindingDB Ligand Name>
CHEMBL4062046

> <Curation/DataSource>
ChEMBL

> <Article DOI>
10.1021/acs.jmedchem.8b00373

> <PMID>
29939742

> <Patent Number>
?

> <Authors>
Sainas, S; Pippione, AC; Lupino, E; Giorgis, M; Circosta, P; Gaidano, V; Goyal, P; Bonanni, D; Rolando, B; Cignetti, A; Ducime, A; Andersson, M; J??rv??, M; Friemann, R; Piccinini, M; Ramondetti, C; Buccinn??, B; Al-Karadaghi, S; Boschi, D; Saglio, G; Lolli, ML

> <Link to Ligand in BindingDB>
http://www.bindingdb.org/bind/chemsearch/marvin/MolStructure.jsp?monomerid=50235593

> <Link to Ligand-Target Pair in BindingDB>
http://www.bindingdb.org/jsp/dbsearch/PrimarySearch_ki.jsp?energyterm=kJ/mole&tag=r21&monomerid=50235593&enzyme=Dihydroorotate+dehydrogenase&column=ki&startPg=0&Increment=50&submit=Search

> <PubChem CID>
124220265

> <PubChem SID>
384991386

$$$$

  Mrv2115 07222212352D          

 36 40  0  0  0  0            999 V2000
   -1.8659    1.4455    0.0000 C   0  0  0  0  0  0  0  0  0  0  0  0
   -2.6909    1.4455    0.0000 C   0  0  0  0  0  0  0  0  0  0  0  0
   -3.1034    0.7310    0.0000 O   0  0  0  0  0  0  0  0  0  0  0  0
   -2.6909    0.0165    0.0000 C   0  0  0  0  0  0  0  0  0  0  0  0
   -1.8659    0.0165    0.0000 C   0  0  0  0  0  0  0  0  0  0  0  0
   -1.4534   -0.6979    0.0000 C   0  0  0  0  0  0  0  0  0  0  0  0
   -0.6284   -0.6979    0.0000 N   0  0  0  0  0  0  0  0  0  0  0  0
   -0.1435   -1.3654    0.0000 N   0  0  0  0  0  0  0  0  0  0  0  0
    0.6411   -1.1104    0.0000 C   0  0  0  0  0  0  0  0  0  0  0  0
    0.6411   -0.2854    0.0000 N   0  0  0  0  0  0  0  0  0  0  0  0
   -0.1435   -0.0305    0.0000 C   0  0  0  0  0  0  0  0  0  0  0  0
   -0.3984    0.7541    0.0000 O   0  0  0  0  0  0  0  0  0  0  0  0
    1.3556    0.1271    0.0000 C   0  0  0  0  0  0  0  0  0  0  0  0
    2.0701   -0.2854    0.0000 C   0  0  0  0  0  0  0  0  0  0  0  0
    2.0701   -1.1104    0.0000 C   0  0  0  0  0  0  0  0  0  0  0  0
    1.3556   -1.5229    0.0000 C   0  0  0  0  0  0  0  0  0  0  0  0
   -1.8659   -1.4124    0.0000 C   0  0  0  0  0  0  0  0  0  0  0  0
   -1.4534   -2.1269    0.0000 F   0  0  0  0  0  0  0  0  0  0  0  0
   -2.6909   -1.4124    0.0000 C   0  0  0  0  0  0  0  0  0  0  0  0
   -3.1034   -0.6979    0.0000 C   0  0  0  0  0  0  0  0  0  0  0  0
   -3.9284   -0.6979    0.0000 C   0  0  0  0  0  0  0  0  0  0  0  0
   -4.3409    0.0165    0.0000 O   0  0  0  0  0  0  0  0  0  0  0  0
   -4.3409   -1.4124    0.0000 N   0  0  0  0  0  0  0  0  0  0  0  0
   -3.9284   -2.1269    0.0000 C   0  0  0  0  0  0  0  0  0  0  0  0
   -3.1034   -2.1269    0.0000 N   0  0  0  0  0  0  0  0  0  0  0  0
   -2.6909   -2.8414    0.0000 C   0  0  0  0  0  0  0  0  0  0  0  0
   -3.1034   -3.5558    0.0000 N   0  0  0  0  0  0  0  0  0  0  0  0
   -3.9284   -3.5558    0.0000 C   0  0  0  0  0  0  0  0  0  0  0  0
   -4.3409   -2.8414    0.0000 C   0  0  0  0  0  0  0  0  0  0  0  0
   -5.1659   -2.8414    0.0000 F   0  0  0  0  0  0  0  0  0  0  0  0
   -3.1034    2.1599    0.0000 C   0  0  0  0  0  0  0  0  0  0  0  0
   -3.9284    2.1599    0.0000 C   0  0  0  0  0  0  0  0  0  0  0  0
   -4.3409    2.8744    0.0000 C   0  0  0  0  0  0  0  0  0  0  0  0
   -3.9284    3.5889    0.0000 C   0  0  0  0  0  0  0  0  0  0  0  0
   -3.1034    3.5889    0.0000 C   0  0  0  0  0  0  0  0  0  0  0  0
   -2.6909    2.8744    0.0000 C   0  0  0  0  0  0  0  0  0  0  0  0
  1  2  1  0  0  0  0
  2  3  1  0  0  0  0
  3  4  1  0  0  0  0
  4  5  4  0  0  0  0
  5  6  4  0  0  0  0
  6  7  1  0  0  0  0
  7  8  4  0  0  0  0
  8  9  4  0  0  0  0
  9 10  4  0  0  0  0
 10 11  4  0  0  0  0
  7 11  4  0  0  0  0
 11 12  2  0  0  0  0
 10 13  1  0  0  0  0
 13 14  1  0  0  0  0
 14 15  1  0  0  0  0
 15 16  1  0  0  0  0
  9 16  1  0  0  0  0
  6 17  4  0  0  0  0
 17 18  1  0  0  0  0
 17 19  4  0  0  0  0
 19 20  4  0  0  0  0
  4 20  4  0  0  0  0
 20 21  1  0  0  0  0
 21 22  2  0  0  0  0
 21 23  1  0  0  0  0
 23 24  1  0  0  0  0
 24 25  4  0  0  0  0
 25 26  4  0  0  0  0
 26 27  4  0  0  0  0
 27 28  4  0  0  0  0
 28 29  4  0  0  0  0
 24 29  4  0  0  0  0
 29 30  1  0  0  0  0
  2 31  1  0  0  0  0
 31 32  1  0  0  0  0
 32 33  1  0  0  0  0
 33 34  1  0  0  0  0
 34 35  1  0  0  0  0
 35 36  1  0  0  0  0
 31 36  1  0  0  0  0
M  END
> <IC50(uM)>
0.19

> <Outcome>
1.0

> <BindingDB ID>
1020520

> <BindingDB MonomerID>
490468

> <BindingDB Ligand Name>
2-[(1S)-1-cyclohexylethoxy]-5-fluoro-N-(5-fluoropyrimidin-4-yl)-4-(3-oxo-5,6,7,8-tetrahydro[1,2,4]triazolo[4,3-a]pyridin-2(3H)-yl)benzamide::US10968216, Example 136

> <Curation/DataSource>
US Patent

> <Article DOI>
?

> <PMID>
?

> <Patent Number>
US10968216

> <Authors>
Gradl, SN; Nguyen, D; Eis, K; Gunther, J; Stellfeld, T; Janzer, A; Christian, S; Mueller, T; Sheikh, SE; Zhou, HJ; Zhao, C; Sykes, DB; Ferrara, SJ; Liu, K; Herbert, SA; Merz, C; Niehues, M; Nising, CF; Schafer, M; Zimmermann, K; Knablein, J; Thede, K; Faupel, T

> <Link to Ligand in BindingDB>
http://www.bindingdb.org/bind/chemsearch/marvin/MolStructure.jsp?monomerid=490468

> <Link to Ligand-Target Pair in BindingDB>
http://www.bindingdb.org/jsp/dbsearch/PrimarySearch_ki.jsp?energyterm=kJ/mole&tag=r21&monomerid=490468&enzyme=Dihydroorotate+dehydrogenase&column=ki&startPg=0&Increment=50&submit=Search

> <PubChem CID>
134474319

> <PubChem SID>
447117195

$$$$

  Mrv2115 07222212352D          

 38 41  0  0  0  0            999 V2000
    0.7145   -3.7125    0.0000 C   0  0  0  0  0  0  0  0  0  0  0  0
    1.4289   -4.1250    0.0000 C   0  0  0  0  0  0  0  0  0  0  0  0
    1.4289   -4.9500    0.0000 C   0  0  0  0  0  0  0  0  0  0  0  0
    2.0964   -5.4349    0.0000 N   0  0  0  0  0  0  0  0  0  0  0  0
    1.8414   -6.2195    0.0000 N   0  0  0  0  0  0  0  0  0  0  0  0
    2.3264   -6.8870    0.0000 C   0  0  0  0  0  0  0  0  0  0  0  0
    3.1468   -6.8007    0.0000 C   0  0  0  0  0  0  0  0  0  0  0  0
    3.6318   -7.4682    0.0000 C   0  0  0  0  0  0  0  0  0  0  0  0
    4.4522   -7.3820    0.0000 O   0  0  0  0  0  0  0  0  0  0  0  0
    4.7878   -6.6283    0.0000 C   0  0  0  0  0  0  0  0  0  0  0  0
    4.3029   -5.9608    0.0000 C   0  0  0  0  0  0  0  0  0  0  0  0
    5.6083   -6.5420    0.0000 C   0  0  0  0  0  0  0  0  0  0  0  0
    5.9438   -5.7884    0.0000 C   0  0  0  0  0  0  0  0  0  0  0  0
    6.7643   -5.7021    0.0000 C   0  0  0  0  0  0  0  0  0  0  0  0
    7.2492   -6.3696    0.0000 C   0  0  0  0  0  0  0  0  0  0  0  0
    6.9137   -7.1232    0.0000 C   0  0  0  0  0  0  0  0  0  0  0  0
    6.0932   -7.2095    0.0000 C   0  0  0  0  0  0  0  0  0  0  0  0
    3.2962   -8.2219    0.0000 C   0  0  0  0  0  0  0  0  0  0  0  0
    3.7811   -8.8893    0.0000 C   0  0  0  0  0  0  0  0  0  0  0  0
    3.4456   -9.6430    0.0000 O   0  0  0  0  0  0  0  0  0  0  0  0
    4.6016   -8.8031    0.0000 N   0  0  0  0  0  0  0  0  0  0  0  0
    5.0865   -9.4705    0.0000 C   0  0  0  0  0  0  0  0  0  0  0  0
    5.9070   -9.3843    0.0000 C   0  0  0  0  0  0  0  0  0  0  0  0
    6.3919  -10.0517    0.0000 C   0  0  0  0  0  0  0  0  0  0  0  0
    6.0564  -10.8054    0.0000 C   0  0  0  0  0  0  0  0  0  0  0  0
    6.5413  -11.4728    0.0000 S   0  0  0  0  0  0  0  0  0  0  0  0
    7.0262  -12.1403    0.0000 C   0  0  0  0  0  0  0  0  0  0  0  0
    5.8739  -11.9577    0.0000 N   0  0  0  0  0  0  0  0  0  0  0  0
    7.2087  -10.9879    0.0000 O   0  0  0  0  0  0  0  0  0  0  0  0
    5.2359  -10.8916    0.0000 C   0  0  0  0  0  0  0  0  0  0  0  0
    4.7510  -10.2242    0.0000 C   0  0  0  0  0  0  0  0  0  0  0  0
    2.4757   -8.3081    0.0000 C   0  0  0  0  0  0  0  0  0  0  0  0
    1.9908   -7.6407    0.0000 C   0  0  0  0  0  0  0  0  0  0  0  0
    1.1703   -7.7269    0.0000 F   0  0  0  0  0  0  0  0  0  0  0  0
    1.0164   -6.2195    0.0000 C   0  0  0  0  0  0  0  0  0  0  0  0
    0.5315   -6.8870    0.0000 O   0  0  0  0  0  0  0  0  0  0  0  0
    0.7615   -5.4349    0.0000 N   0  0  0  0  0  0  0  0  0  0  0  0
   -0.0231   -5.1800    0.0000 C   0  0  0  0  0  0  0  0  0  0  0  0
  1  2  1  0  0  0  0
  2  3  1  0  0  0  0
  3  4  4  0  0  0  0
  4  5  4  0  0  0  0
  5  6  1  0  0  0  0
  6  7  4  0  0  0  0
  7  8  4  0  0  0  0
  8  9  1  0  0  0  0
  9 10  1  0  0  0  0
 10 11  1  0  0  0  0
 10 12  1  0  0  0  0
 12 13  1  0  0  0  0
 13 14  1  0  0  0  0
 14 15  1  0  0  0  0
 15 16  1  0  0  0  0
 16 17  1  0  0  0  0
 12 17  1  0  0  0  0
  8 18  4  0  0  0  0
 18 19  1  0  0  0  0
 19 20  2  0  0  0  0
 19 21  1  0  0  0  0
 21 22  1  0  0  0  0
 22 23  4  0  0  0  0
 23 24  4  0  0  0  0
 24 25  4  0  0  0  0
 25 26  1  0  0  0  0
 26 27  1  0  0  0  0
 26 28  2  0  0  0  0
 26 29  2  0  0  0  0
 25 30  4  0  0  0  0
 30 31  4  0  0  0  0
 22 31  4  0  0  0  0
 18 32  4  0  0  0  0
 32 33  4  0  0  0  0
  6 33  4  0  0  0  0
 33 34  1  0  0  0  0
  5 35  4  0  0  0  0
 35 36  2  0  0  0  0
 35 37  4  0  0  0  0
  3 37  4  0  0  0  0
 37 38  1  0  0  0  0
M  END
> <IC50(uM)>
0.65

> <Outcome>
1.0

> <BindingDB ID>
972671; 1098825

> <BindingDB MonomerID>
470549

> <BindingDB Ligand Name>
2-[(1S)-1-cyclohexylethoxy]-4-(3-ethyl-4-methyl-5-oxo-4,5-dihydro-1H-1,2,4-triazol-1-yl)-5-fluoro-N-[4-(S-methanesulfonimidoyl)phenyl]benzamide (Mixture of Stereoisomers)::US10815215, Example 209; 2-[(1S)-1-cyclohexylethoxy]-4-(3-ethyl-4-methyl-5-oxo-4,5-dihydro-1H-1,2,4-triazol-1-yl)-5-fluoro-N-[4-(S-methanesulfonimidoyl)phenyl]benzamide (Mixture of Stereoisomers)::US10815215, Example 209::US11130745, Example 209

> <Curation/DataSource>
US Patent

> <Article DOI>
?

> <PMID>
?

> <Patent Number>
US10815215; US11130745

> <Authors>
Gradl, SN; Nguyen, D; Eis, K; Gunther, J; Stellfeld, T; Janzer, A; Christian, S; Muller, T; Sheikh, SE; Zhou, HJ; Zhao, C; Sykes, DB; Ferrara, SJ; Liu, K; Krober, M; Merz, C; Niehues, M; Schafer, M; Zimmermann, K; Nising, CF; Gradl, SN; Nguyen, D; Eis, K; Gunther, J; Stellfeld, T; Janzer, A; Christian, S; Muller, T; Sheikh, SE; Sykes, DB; Ferrara, SJ; Krober, M; Merz, C; Niehues, M; Schafer, M; Zimmermann, K; Nising, CF

> <Link to Ligand in BindingDB>
http://www.bindingdb.org/bind/chemsearch/marvin/MolStructure.jsp?monomerid=470549

> <Link to Ligand-Target Pair in BindingDB>
http://www.bindingdb.org/jsp/dbsearch/PrimarySearch_ki.jsp?energyterm=kJ/mole&tag=r21&monomerid=470549&enzyme=Dihydroorotate+dehydrogenase&column=ki&startPg=0&Increment=50&submit=Search

> <PubChem CID>
134470207

> <PubChem SID>
441609725

$$$$

  Mrv2115 07222212352D          

 31 34  0  0  0  0            999 V2000
   -1.3507   -6.9695    0.0000 O   0  0  0  0  0  0  0  0  0  0  0  0
   -0.7376   -6.4175    0.0000 C   0  0  0  0  0  0  0  0  0  0  0  0
   -0.9091   -5.6105    0.0000 O   0  0  0  0  0  0  0  0  0  0  0  0
    0.0470   -6.6724    0.0000 C   0  0  0  0  0  0  0  0  0  0  0  0
    0.7145   -6.1875    0.0000 C   0  0  0  0  0  0  0  0  0  0  0  0
    0.7145   -5.3625    0.0000 C   0  0  0  0  0  0  0  0  0  0  0  0
    0.0000   -4.9500    0.0000 O   0  0  0  0  0  0  0  0  0  0  0  0
    1.4289   -4.9500    0.0000 N   0  0  0  0  0  0  0  0  0  0  0  0
    1.4289   -4.1250    0.0000 C   0  0  0  0  0  0  0  0  0  0  0  0
    0.7145   -3.7125    0.0000 C   0  0  0  0  0  0  0  0  0  0  0  0
    0.7145   -2.8875    0.0000 C   0  0  0  0  0  0  0  0  0  0  0  0
    1.4289   -2.4750    0.0000 C   0  0  0  0  0  0  0  0  0  0  0  0
    1.4289   -1.6500    0.0000 C   0  0  0  0  0  0  0  0  0  0  0  0
    0.7145   -1.2375    0.0000 C   0  0  0  0  0  0  0  0  0  0  0  0
    0.7145   -0.4125    0.0000 C   0  0  0  0  0  0  0  0  0  0  0  0
    1.4289    0.0000    0.0000 C   0  0  0  0  0  0  0  0  0  0  0  0
    2.1434   -0.4125    0.0000 C   0  0  0  0  0  0  0  0  0  0  0  0
    2.8579    0.0000    0.0000 C   0  0  0  0  0  0  0  0  0  0  0  0
    3.5724   -0.4125    0.0000 C   0  0  0  0  0  0  0  0  0  0  0  0
    3.5724   -1.2375    0.0000 C   0  0  0  0  0  0  0  0  0  0  0  0
    2.8579   -1.6500    0.0000 C   0  0  0  0  0  0  0  0  0  0  0  0
    2.1434   -1.2375    0.0000 C   0  0  0  0  0  0  0  0  0  0  0  0
    2.1434   -2.8875    0.0000 C   0  0  0  0  0  0  0  0  0  0  0  0
    2.1434   -3.7125    0.0000 C   0  0  0  0  0  0  0  0  0  0  0  0
    2.8579   -4.1250    0.0000 C   0  0  0  0  0  0  0  0  0  0  0  0
    3.5724   -4.5375    0.0000 F   0  0  0  0  0  0  0  0  0  0  0  0
    2.4454   -4.8395    0.0000 F   0  0  0  0  0  0  0  0  0  0  0  0
    3.2704   -3.4105    0.0000 F   0  0  0  0  0  0  0  0  0  0  0  0
    1.3819   -6.6724    0.0000 C   0  0  0  0  0  0  0  0  0  0  0  0
    1.1270   -7.4570    0.0000 C   0  0  0  0  0  0  0  0  0  0  0  0
    0.3020   -7.4570    0.0000 C   0  0  0  0  0  0  0  0  0  0  0  0
  1  2  2  0  0  0  0
  2  3  1  0  0  0  0
  2  4  1  0  0  0  0
  4  5  2  0  0  0  0
  5  6  1  0  0  0  0
  6  7  2  0  0  0  0
  6  8  1  0  0  0  0
  8  9  1  0  0  0  0
  9 10  4  0  0  0  0
 10 11  4  0  0  0  0
 11 12  4  0  0  0  0
 12 13  1  0  0  0  0
 13 14  4  0  0  0  0
 14 15  4  0  0  0  0
 15 16  4  0  0  0  0
 16 17  4  0  0  0  0
 17 18  4  0  0  0  0
 18 19  4  0  0  0  0
 19 20  4  0  0  0  0
 20 21  4  0  0  0  0
 21 22  4  0  0  0  0
 13 22  4  0  0  0  0
 17 22  4  0  0  0  0
 12 23  4  0  0  0  0
 23 24  4  0  0  0  0
  9 24  4  0  0  0  0
 24 25  1  0  0  0  0
 25 26  1  0  0  0  0
 25 27  1  0  0  0  0
 25 28  1  0  0  0  0
  5 29  1  0  0  0  0
 29 30  1  0  0  0  0
 30 31  1  0  0  0  0
  4 31  1  0  0  0  0
M  END
> <IC50(uM)>
0.18

> <Outcome>
1.0

> <BindingDB ID>
50251708

> <BindingDB MonomerID>
50137293

> <BindingDB Ligand Name>
2-(4-Naphthalen-1-yl-2-trifluoromethyl-phenylcarbamoyl)-cyclopent-1-enecarboxylic acid::CHEMBL349577

> <Curation/DataSource>
ChEMBL

> <Article DOI>
10.1016/j.bmcl.2003.10.021

> <PMID>
14684297

> <Patent Number>
?

> <Authors>
Leban, J; Saeb, W; Garcia, G; Baumgartner, R; Kramer, B

> <Link to Ligand in BindingDB>
http://www.bindingdb.org/bind/chemsearch/marvin/MolStructure.jsp?monomerid=50137293

> <Link to Ligand-Target Pair in BindingDB>
http://www.bindingdb.org/jsp/dbsearch/PrimarySearch_ki.jsp?energyterm=kJ/mole&tag=r21&monomerid=50137293&enzyme=Dihydroorotate+dehydrogenase&column=ki&startPg=0&Increment=50&submit=Search

> <PubChem CID>
44369868

> <PubChem SID>
104027459

$$$$

  Mrv2115 07222212352D          

 32 34  0  0  0  0            999 V2000
   -0.7145   -3.7125    0.0000 O   0  0  0  0  0  0  0  0  0  0  0  0
    0.0000   -4.1250    0.0000 C   0  0  0  0  0  0  0  0  0  0  0  0
    0.7145   -3.7125    0.0000 O   0  0  0  0  0  0  0  0  0  0  0  0
    0.0000   -4.9500    0.0000 C   0  0  0  0  0  0  0  0  0  0  0  0
    0.6674   -5.4349    0.0000 C   0  0  0  0  0  0  0  0  0  0  0  0
    1.4521   -5.1800    0.0000 C   0  0  0  0  0  0  0  0  0  0  0  0
    1.6236   -4.3730    0.0000 O   0  0  0  0  0  0  0  0  0  0  0  0
    2.0652   -5.7320    0.0000 N   0  0  0  0  0  0  0  0  0  0  0  0
    2.8498   -5.4771    0.0000 C   0  0  0  0  0  0  0  0  0  0  0  0
    3.0213   -4.6701    0.0000 C   0  0  0  0  0  0  0  0  0  0  0  0
    3.8059   -4.4152    0.0000 C   0  0  0  0  0  0  0  0  0  0  0  0
    4.4190   -4.9672    0.0000 C   0  0  0  0  0  0  0  0  0  0  0  0
    5.2036   -4.7123    0.0000 C   0  0  0  0  0  0  0  0  0  0  0  0
    5.3752   -3.9053    0.0000 C   0  0  0  0  0  0  0  0  0  0  0  0
    6.1598   -3.6503    0.0000 C   0  0  0  0  0  0  0  0  0  0  0  0
    6.7729   -4.2024    0.0000 C   0  0  0  0  0  0  0  0  0  0  0  0
    6.6014   -5.0094    0.0000 C   0  0  0  0  0  0  0  0  0  0  0  0
    7.2145   -5.5614    0.0000 O   0  0  0  0  0  0  0  0  0  0  0  0
    7.9991   -5.3064    0.0000 C   0  0  0  0  0  0  0  0  0  0  0  0
    8.7837   -5.0515    0.0000 F   0  0  0  0  0  0  0  0  0  0  0  0
    8.2540   -6.0911    0.0000 F   0  0  0  0  0  0  0  0  0  0  0  0
    7.7441   -4.5218    0.0000 F   0  0  0  0  0  0  0  0  0  0  0  0
    5.8167   -5.2643    0.0000 C   0  0  0  0  0  0  0  0  0  0  0  0
    4.2475   -5.7742    0.0000 C   0  0  0  0  0  0  0  0  0  0  0  0
    3.4629   -6.0291    0.0000 C   0  0  0  0  0  0  0  0  0  0  0  0
    3.2913   -6.8361    0.0000 C   0  0  0  0  0  0  0  0  0  0  0  0
    3.1198   -7.6431    0.0000 F   0  0  0  0  0  0  0  0  0  0  0  0
    2.4844   -6.6646    0.0000 F   0  0  0  0  0  0  0  0  0  0  0  0
    4.0983   -7.0076    0.0000 F   0  0  0  0  0  0  0  0  0  0  0  0
    0.4125   -6.2195    0.0000 C   0  0  0  0  0  0  0  0  0  0  0  0
   -0.4125   -6.2195    0.0000 C   0  0  0  0  0  0  0  0  0  0  0  0
   -0.6674   -5.4349    0.0000 C   0  0  0  0  0  0  0  0  0  0  0  0
  1  2  2  0  0  0  0
  2  3  1  0  0  0  0
  2  4  1  0  0  0  0
  4  5  2  0  0  0  0
  5  6  1  0  0  0  0
  6  7  2  0  0  0  0
  6  8  1  0  0  0  0
  8  9  1  0  0  0  0
  9 10  4  0  0  0  0
 10 11  4  0  0  0  0
 11 12  4  0  0  0  0
 12 13  1  0  0  0  0
 13 14  4  0  0  0  0
 14 15  4  0  0  0  0
 15 16  4  0  0  0  0
 16 17  4  0  0  0  0
 17 18  1  0  0  0  0
 18 19  1  0  0  0  0
 19 20  1  0  0  0  0
 19 21  1  0  0  0  0
 19 22  1  0  0  0  0
 17 23  4  0  0  0  0
 13 23  4  0  0  0  0
 12 24  4  0  0  0  0
 24 25  4  0  0  0  0
  9 25  4  0  0  0  0
 25 26  1  0  0  0  0
 26 27  1  0  0  0  0
 26 28  1  0  0  0  0
 26 29  1  0  0  0  0
  5 30  1  0  0  0  0
 30 31  1  0  0  0  0
 31 32  1  0  0  0  0
  4 32  1  0  0  0  0
M  END
> <IC50(uM)>
0.84

> <Outcome>
1.0

> <BindingDB ID>
50251724

> <BindingDB MonomerID>
50137307

> <BindingDB Ligand Name>
2-(3'-Trifluoromethoxy-3-trifluoromethyl-biphenyl-4-ylcarbamoyl)-cyclopent-1-enecarboxylic acid::CHEMBL157004

> <Curation/DataSource>
ChEMBL

> <Article DOI>
10.1016/j.bmcl.2003.10.021

> <PMID>
14684297

> <Patent Number>
?

> <Authors>
Leban, J; Saeb, W; Garcia, G; Baumgartner, R; Kramer, B

> <Link to Ligand in BindingDB>
http://www.bindingdb.org/bind/chemsearch/marvin/MolStructure.jsp?monomerid=50137307

> <Link to Ligand-Target Pair in BindingDB>
http://www.bindingdb.org/jsp/dbsearch/PrimarySearch_ki.jsp?energyterm=kJ/mole&tag=r21&monomerid=50137307&enzyme=Dihydroorotate+dehydrogenase&column=ki&startPg=0&Increment=50&submit=Search

> <PubChem CID>
44369871

> <PubChem SID>
104027473

$$$$

  Mrv2115 07222212352D          

 22 24  0  0  0  0            999 V2000
   -2.5067   -4.6160    0.0000 C   0  0  0  0  0  0  0  0  0  0  0  0
   -1.8936   -4.0640    0.0000 C   0  0  0  0  0  0  0  0  0  0  0  0
   -2.0652   -3.2570    0.0000 O   0  0  0  0  0  0  0  0  0  0  0  0
   -1.4521   -2.7050    0.0000 C   0  0  0  0  0  0  0  0  0  0  0  0
   -1.6236   -1.8980    0.0000 O   0  0  0  0  0  0  0  0  0  0  0  0
   -0.6674   -2.9599    0.0000 C   0  0  0  0  0  0  0  0  0  0  0  0
   -0.4125   -3.7445    0.0000 C   0  0  0  0  0  0  0  0  0  0  0  0
   -0.8974   -4.4120    0.0000 O   0  0  0  0  0  0  0  0  0  0  0  0
    0.4125   -3.7445    0.0000 C   0  0  0  0  0  0  0  0  0  0  0  0
    0.6674   -2.9599    0.0000 O   0  0  0  0  0  0  0  0  0  0  0  0
    0.0000   -2.4750    0.0000 C   0  0  0  0  0  0  0  0  0  0  0  0
    0.0000   -1.6500    0.0000 N   0  0  0  0  0  0  0  0  0  0  0  0
    0.7145   -1.2375    0.0000 C   0  0  0  0  0  0  0  0  0  0  0  0
    0.7145   -0.4125    0.0000 C   0  0  0  0  0  0  0  0  0  0  0  0
    1.4289    0.0000    0.0000 C   0  0  0  0  0  0  0  0  0  0  0  0
    2.1434   -0.4125    0.0000 C   0  0  0  0  0  0  0  0  0  0  0  0
    2.8579    0.0000    0.0000 C   0  0  0  0  0  0  0  0  0  0  0  0
    3.5724   -0.4125    0.0000 C   0  0  0  0  0  0  0  0  0  0  0  0
    3.5724   -1.2375    0.0000 C   0  0  0  0  0  0  0  0  0  0  0  0
    2.8579   -1.6500    0.0000 C   0  0  0  0  0  0  0  0  0  0  0  0
    2.1434   -1.2375    0.0000 C   0  0  0  0  0  0  0  0  0  0  0  0
    1.4289   -1.6500    0.0000 C   0  0  0  0  0  0  0  0  0  0  0  0
  1  2  1  0  0  0  0
  2  3  1  0  0  0  0
  3  4  1  0  0  0  0
  4  5  2  0  0  0  0
  4  6  1  0  0  0  0
  6  7  4  0  0  0  0
  7  8  1  0  0  0  0
  7  9  4  0  0  0  0
  9 10  4  0  0  0  0
 10 11  4  0  0  0  0
  6 11  4  0  0  0  0
 11 12  1  0  0  0  0
 12 13  1  0  0  0  0
 13 14  4  0  0  0  0
 14 15  4  0  0  0  0
 15 16  4  0  0  0  0
 16 17  4  0  0  0  0
 17 18  4  0  0  0  0
 18 19  4  0  0  0  0
 19 20  4  0  0  0  0
 20 21  4  0  0  0  0
 16 21  4  0  0  0  0
 21 22  4  0  0  0  0
 13 22  4  0  0  0  0
M  END
> <IC50(uM)>
50.0

> <Outcome>
0.0

> <BindingDB ID>
51079145

> <BindingDB MonomerID>
50441253

> <BindingDB Ligand Name>
CHEMBL2431496

> <Curation/DataSource>
ChEMBL

> <Article DOI>
10.1021/jm400938g

> <PMID>
24073986

> <Patent Number>
?

> <Authors>
Xu, M; Zhu, J; Diao, Y; Zhou, H; Ren, X; Sun, D; Huang, J; Han, D; Zhao, Z; Zhu, L; Xu, Y; Li, H

> <Link to Ligand in BindingDB>
http://www.bindingdb.org/bind/chemsearch/marvin/MolStructure.jsp?monomerid=50441253

> <Link to Ligand-Target Pair in BindingDB>
http://www.bindingdb.org/jsp/dbsearch/PrimarySearch_ki.jsp?energyterm=kJ/mole&tag=r21&monomerid=50441253&enzyme=Dihydroorotate+dehydrogenase&column=ki&startPg=0&Increment=50&submit=Search

> <PubChem CID>
91898814

> <PubChem SID>
175453570

$$$$

  Mrv2115 07222212352D          

 35 38  0  0  0  0            999 V2000
   -5.1659    1.4455    0.0000 C   0  0  0  0  0  0  0  0  0  0  0  0
   -4.3409    1.4455    0.0000 C   0  0  0  0  0  0  0  0  0  0  0  0
   -3.9284    2.1599    0.0000 C   0  0  0  0  0  0  0  0  0  0  0  0
   -4.3409    2.8744    0.0000 F   0  0  0  0  0  0  0  0  0  0  0  0
   -3.1034    2.1599    0.0000 C   0  0  0  0  0  0  0  0  0  0  0  0
   -2.6909    1.4455    0.0000 C   0  0  0  0  0  0  0  0  0  0  0  0
   -3.1034    0.7310    0.0000 C   0  0  0  0  0  0  0  0  0  0  0  0
   -3.9284    0.7310    0.0000 C   0  0  0  0  0  0  0  0  0  0  0  0
   -4.3409    0.0165    0.0000 N   0  0  0  0  0  0  0  0  0  0  0  0
   -3.9284   -0.6979    0.0000 C   0  0  0  0  0  0  0  0  0  0  0  0
   -4.3409   -1.4124    0.0000 O   0  0  0  0  0  0  0  0  0  0  0  0
   -3.1034   -0.6979    0.0000 C   0  0  0  0  0  0  0  0  0  0  0  0
   -2.6909    0.0165    0.0000 C   0  0  0  0  0  0  0  0  0  0  0  0
   -1.8659    0.0165    0.0000 C   0  0  0  0  0  0  0  0  0  0  0  0
   -1.4534    0.7310    0.0000 F   0  0  0  0  0  0  0  0  0  0  0  0
   -1.4534   -0.6979    0.0000 C   0  0  0  0  0  0  0  0  0  0  0  0
   -0.6284   -0.6979    0.0000 N   0  0  0  0  0  0  0  0  0  0  0  0
   -0.1435   -1.3654    0.0000 N   0  0  0  0  0  0  0  0  0  0  0  0
    0.6411   -1.1104    0.0000 C   0  0  0  0  0  0  0  0  0  0  0  0
    0.6411   -0.2854    0.0000 N   0  0  0  0  0  0  0  0  0  0  0  0
   -0.1435   -0.0305    0.0000 C   0  0  0  0  0  0  0  0  0  0  0  0
   -0.3984    0.7541    0.0000 O   0  0  0  0  0  0  0  0  0  0  0  0
    1.3556    0.1271    0.0000 C   0  0  0  0  0  0  0  0  0  0  0  0
    2.0701   -0.2854    0.0000 C   0  0  0  0  0  0  0  0  0  0  0  0
    2.0701   -1.1104    0.0000 O   0  0  0  0  0  0  0  0  0  0  0  0
    1.3556   -1.5229    0.0000 C   0  0  0  0  0  0  0  0  0  0  0  0
   -1.8659   -1.4124    0.0000 C   0  0  0  0  0  0  0  0  0  0  0  0
   -2.6909   -1.4124    0.0000 C   0  0  0  0  0  0  0  0  0  0  0  0
   -3.1034   -2.1269    0.0000 O   0  0  0  0  0  0  0  0  0  0  0  0
   -2.6909   -2.8414    0.0000 C   0  0  0  0  0  0  0  0  0  0  0  0
   -1.8659   -2.8414    0.0000 C   0  0  0  0  0  0  0  0  0  0  0  0
   -3.1034   -3.5558    0.0000 C   0  0  0  0  0  0  0  0  0  0  0  0
   -3.8179   -3.1433    0.0000 F   0  0  0  0  0  0  0  0  0  0  0  0
   -2.3890   -3.9683    0.0000 F   0  0  0  0  0  0  0  0  0  0  0  0
   -3.5159   -4.2703    0.0000 F   0  0  0  0  0  0  0  0  0  0  0  0
  1  2  1  0  0  0  0
  2  3  4  0  0  0  0
  3  4  1  0  0  0  0
  3  5  4  0  0  0  0
  5  6  4  0  0  0  0
  6  7  4  0  0  0  0
  7  8  4  0  0  0  0
  2  8  4  0  0  0  0
  8  9  1  0  0  0  0
  9 10  1  0  0  0  0
 10 11  2  0  0  0  0
 10 12  1  0  0  0  0
 12 13  4  0  0  0  0
 13 14  4  0  0  0  0
 14 15  1  0  0  0  0
 14 16  4  0  0  0  0
 16 17  1  0  0  0  0
 17 18  4  0  0  0  0
 18 19  4  0  0  0  0
 19 20  4  0  0  0  0
 20 21  4  0  0  0  0
 17 21  4  0  0  0  0
 21 22  2  0  0  0  0
 20 23  1  0  0  0  0
 23 24  1  0  0  0  0
 24 25  1  0  0  0  0
 25 26  1  0  0  0  0
 19 26  1  0  0  0  0
 16 27  4  0  0  0  0
 27 28  4  0  0  0  0
 12 28  4  0  0  0  0
 28 29  1  0  0  0  0
 29 30  1  0  0  0  0
 30 31  1  0  0  0  0
 30 32  1  0  0  0  0
 32 33  1  0  0  0  0
 32 34  1  0  0  0  0
 32 35  1  0  0  0  0
M  END
> <IC50(uM)>
0.19

> <Outcome>
1.0

> <BindingDB ID>
1020588

> <BindingDB MonomerID>
490527

> <BindingDB Ligand Name>
5-fluoro-N-(3-fluoro-2-methylphenyl)-4-(3-oxo-5,6-dihydro-3H-[1,2,4]triazolo[3,4-c][1,4]oxazin-2(8H)-yl)-2-{[(2S)-1,1,1-trifluoropropan-2-yl]oxy}benzamide::US10968216, Example 195

> <Curation/DataSource>
US Patent

> <Article DOI>
?

> <PMID>
?

> <Patent Number>
US10968216

> <Authors>
Gradl, SN; Nguyen, D; Eis, K; Gunther, J; Stellfeld, T; Janzer, A; Christian, S; Mueller, T; Sheikh, SE; Zhou, HJ; Zhao, C; Sykes, DB; Ferrara, SJ; Liu, K; Herbert, SA; Merz, C; Niehues, M; Nising, CF; Schafer, M; Zimmermann, K; Knablein, J; Thede, K; Faupel, T

> <Link to Ligand in BindingDB>
http://www.bindingdb.org/bind/chemsearch/marvin/MolStructure.jsp?monomerid=490527

> <Link to Ligand-Target Pair in BindingDB>
http://www.bindingdb.org/jsp/dbsearch/PrimarySearch_ki.jsp?energyterm=kJ/mole&tag=r21&monomerid=490527&enzyme=Dihydroorotate+dehydrogenase&column=ki&startPg=0&Increment=50&submit=Search

> <PubChem CID>
134474154

> <PubChem SID>
447117253

$$$$

  Mrv2115 07222212352D          

 36 39  0  0  0  0            999 V2000
   -3.2083    2.1568    0.0000 C   0  0  0  0  0  0  0  0  0  0  0  0
   -2.7958    1.4423    0.0000 C   0  0  0  0  0  0  0  0  0  0  0  0
   -3.2083    0.7279    0.0000 O   0  0  0  0  0  0  0  0  0  0  0  0
   -2.7958    0.0134    0.0000 C   0  0  0  0  0  0  0  0  0  0  0  0
   -1.9708    0.0134    0.0000 C   0  0  0  0  0  0  0  0  0  0  0  0
   -1.5583   -0.7011    0.0000 C   0  0  0  0  0  0  0  0  0  0  0  0
   -0.7333   -0.7011    0.0000 N   0  0  0  0  0  0  0  0  0  0  0  0
   -0.2483   -1.3685    0.0000 N   0  0  0  0  0  0  0  0  0  0  0  0
    0.5363   -1.1136    0.0000 C   0  0  0  0  0  0  0  0  0  0  0  0
    0.5363   -0.2886    0.0000 N   0  0  0  0  0  0  0  0  0  0  0  0
   -0.2483   -0.0336    0.0000 C   0  0  0  0  0  0  0  0  0  0  0  0
   -0.5033    0.7510    0.0000 O   0  0  0  0  0  0  0  0  0  0  0  0
    1.1813    0.2258    0.0000 C   0  0  0  0  0  0  0  0  0  0  0  0
    1.9856    0.0422    0.0000 C   0  0  0  0  0  0  0  0  0  0  0  0
    2.3436   -0.7011    0.0000 N   0  0  0  0  0  0  0  0  0  0  0  0
    1.9856   -1.4444    0.0000 C   0  0  0  0  0  0  0  0  0  0  0  0
    1.1813   -1.6280    0.0000 C   0  0  0  0  0  0  0  0  0  0  0  0
   -1.9708   -1.4156    0.0000 C   0  0  0  0  0  0  0  0  0  0  0  0
   -1.5583   -2.1300    0.0000 F   0  0  0  0  0  0  0  0  0  0  0  0
   -2.7958   -1.4156    0.0000 C   0  0  0  0  0  0  0  0  0  0  0  0
   -3.2083   -0.7011    0.0000 C   0  0  0  0  0  0  0  0  0  0  0  0
   -4.0333   -0.7011    0.0000 C   0  0  0  0  0  0  0  0  0  0  0  0
   -4.4458    0.0134    0.0000 O   0  0  0  0  0  0  0  0  0  0  0  0
   -4.4458   -1.4156    0.0000 N   0  0  0  0  0  0  0  0  0  0  0  0
   -5.2708   -1.4156    0.0000 C   0  0  0  0  0  0  0  0  0  0  0  0
   -5.6833   -2.1300    0.0000 C   0  0  0  0  0  0  0  0  0  0  0  0
   -5.2708   -2.8445    0.0000 F   0  0  0  0  0  0  0  0  0  0  0  0
   -6.5083   -2.1300    0.0000 C   0  0  0  0  0  0  0  0  0  0  0  0
   -6.9208   -1.4156    0.0000 C   0  0  0  0  0  0  0  0  0  0  0  0
   -6.5083   -0.7011    0.0000 C   0  0  0  0  0  0  0  0  0  0  0  0
   -5.6833   -0.7011    0.0000 C   0  0  0  0  0  0  0  0  0  0  0  0
   -5.2708    0.0134    0.0000 F   0  0  0  0  0  0  0  0  0  0  0  0
   -1.9708    1.4423    0.0000 C   0  0  0  0  0  0  0  0  0  0  0  0
   -1.9708    0.6173    0.0000 F   0  0  0  0  0  0  0  0  0  0  0  0
   -1.9708    2.2673    0.0000 F   0  0  0  0  0  0  0  0  0  0  0  0
   -1.1458    1.4423    0.0000 F   0  0  0  0  0  0  0  0  0  0  0  0
  1  2  1  0  0  0  0
  2  3  1  0  0  0  0
  3  4  1  0  0  0  0
  4  5  4  0  0  0  0
  5  6  4  0  0  0  0
  6  7  1  0  0  0  0
  7  8  4  0  0  0  0
  8  9  4  0  0  0  0
  9 10  4  0  0  0  0
 10 11  4  0  0  0  0
  7 11  4  0  0  0  0
 11 12  2  0  0  0  0
 10 13  1  0  0  0  0
 13 14  1  0  0  0  0
 14 15  1  0  0  0  0
 15 16  1  0  0  0  0
 16 17  1  0  0  0  0
  9 17  1  0  0  0  0
  6 18  4  0  0  0  0
 18 19  1  0  0  0  0
 18 20  4  0  0  0  0
 20 21  4  0  0  0  0
  4 21  4  0  0  0  0
 21 22  1  0  0  0  0
 22 23  2  0  0  0  0
 22 24  1  0  0  0  0
 24 25  1  0  0  0  0
 25 26  4  0  0  0  0
 26 27  1  0  0  0  0
 26 28  4  0  0  0  0
 28 29  4  0  0  0  0
 29 30  4  0  0  0  0
 30 31  4  0  0  0  0
 25 31  4  0  0  0  0
 31 32  1  0  0  0  0
  2 33  1  0  0  0  0
 33 34  1  0  0  0  0
 33 35  1  0  0  0  0
 33 36  1  0  0  0  0
M  END
> <IC50(uM)>
1.1

> <Outcome>
0.0

> <BindingDB ID>
1020685

> <BindingDB MonomerID>
490611

> <BindingDB Ligand Name>
N-(2,6-difluorophenyl)-5-fluoro-4-(3-oxo-6,7,8,9-tetrahydro-3H-[1,2,4]triazolo[4,3-d][1,4]diazepin-2(5H)-yl)-2-{[(2S)-1,1,1-trifluoropropan-2-yl]oxy}benzamide, salt with hydrochloric Acid::US10968216, Example 279

> <Curation/DataSource>
US Patent

> <Article DOI>
?

> <PMID>
?

> <Patent Number>
US10968216

> <Authors>
Gradl, SN; Nguyen, D; Eis, K; Gunther, J; Stellfeld, T; Janzer, A; Christian, S; Mueller, T; Sheikh, SE; Zhou, HJ; Zhao, C; Sykes, DB; Ferrara, SJ; Liu, K; Herbert, SA; Merz, C; Niehues, M; Nising, CF; Schafer, M; Zimmermann, K; Knablein, J; Thede, K; Faupel, T

> <Link to Ligand in BindingDB>
http://www.bindingdb.org/bind/chemsearch/marvin/MolStructure.jsp?monomerid=490611

> <Link to Ligand-Target Pair in BindingDB>
http://www.bindingdb.org/jsp/dbsearch/PrimarySearch_ki.jsp?energyterm=kJ/mole&tag=r21&monomerid=490611&enzyme=Dihydroorotate+dehydrogenase&column=ki&startPg=0&Increment=50&submit=Search

> <PubChem CID>
134474140

> <PubChem SID>
447117337

$$$$

  Mrv2115 07222212352D          

 33 37  0  0  0  0            999 V2000
    8.5003    2.3479    0.0000 C   0  0  0  0  0  0  0  0  0  0  0  0
    7.7858    1.9354    0.0000 N   0  0  0  0  0  0  0  0  0  0  0  0
    7.7858    1.1104    0.0000 C   0  0  0  0  0  0  0  0  0  0  0  0
    7.0714    0.6979    0.0000 C   0  0  0  0  0  0  0  0  0  0  0  0
    6.3569    1.1104    0.0000 N   0  0  0  0  0  0  0  0  0  0  0  0
    5.6424    0.6979    0.0000 C   0  0  0  0  0  0  0  0  0  0  0  0
    5.6424   -0.1271    0.0000 C   0  0  0  0  0  0  0  0  0  0  0  0
    6.3569   -0.5396    0.0000 C   0  0  0  0  0  0  0  0  0  0  0  0
    6.3569   -1.3646    0.0000 C   0  0  0  0  0  0  0  0  0  0  0  0
    5.6424   -1.7771    0.0000 C   0  0  0  0  0  0  0  0  0  0  0  0
    4.9279   -1.3646    0.0000 C   0  0  0  0  0  0  0  0  0  0  0  0
    4.9279   -0.5396    0.0000 C   0  0  0  0  0  0  0  0  0  0  0  0
    4.2135   -0.1271    0.0000 C   0  0  0  0  0  0  0  0  0  0  0  0
    3.4990   -0.5396    0.0000 C   0  0  0  0  0  0  0  0  0  0  0  0
    2.7845   -0.1271    0.0000 C   0  0  0  0  0  0  0  0  0  0  0  0
    2.7845    0.6979    0.0000 C   0  0  0  0  0  0  0  0  0  0  0  0
    2.0701    1.1104    0.0000 C   0  0  0  0  0  0  0  0  0  0  0  0
    1.3556    0.6979    0.0000 C   0  0  0  0  0  0  0  0  0  0  0  0
    0.6411    1.1104    0.0000 C   0  0  0  0  0  0  0  0  0  0  0  0
   -0.1435    0.8555    0.0000 N   0  0  0  0  0  0  0  0  0  0  0  0
   -0.6284    1.5229    0.0000 N   0  0  0  0  0  0  0  0  0  0  0  0
   -0.1435    2.1904    0.0000 N   0  0  0  0  0  0  0  0  0  0  0  0
   -0.3984    2.9750    0.0000 C   0  0  0  0  0  0  0  0  0  0  0  0
    0.6411    1.9354    0.0000 C   0  0  0  0  0  0  0  0  0  0  0  0
    1.3556    2.3479    0.0000 C   0  0  0  0  0  0  0  0  0  0  0  0
    1.3556    3.1729    0.0000 C   0  0  0  0  0  0  0  0  0  0  0  0
    2.0701    3.5854    0.0000 O   0  0  0  0  0  0  0  0  0  0  0  0
    0.6411    3.5854    0.0000 O   0  0  0  0  0  0  0  0  0  0  0  0
    2.0701    1.9354    0.0000 C   0  0  0  0  0  0  0  0  0  0  0  0
    3.4990    1.1104    0.0000 C   0  0  0  0  0  0  0  0  0  0  0  0
    4.2135    0.6979    0.0000 C   0  0  0  0  0  0  0  0  0  0  0  0
    6.3569    1.9354    0.0000 C   0  0  0  0  0  0  0  0  0  0  0  0
    7.0714    2.3479    0.0000 C   0  0  0  0  0  0  0  0  0  0  0  0
  1  2  1  0  0  0  0
  2  3  1  0  0  0  0
  3  4  1  0  0  0  0
  4  5  1  0  0  0  0
  5  6  1  0  0  0  0
  6  7  1  0  0  0  0
  7  8  4  0  0  0  0
  8  9  4  0  0  0  0
  9 10  4  0  0  0  0
 10 11  4  0  0  0  0
 11 12  4  0  0  0  0
  7 12  4  0  0  0  0
 12 13  1  0  0  0  0
 13 14  4  0  0  0  0
 14 15  4  0  0  0  0
 15 16  4  0  0  0  0
 16 17  1  0  0  0  0
 17 18  2  0  0  0  0
 18 19  1  0  0  0  0
 19 20  1  0  0  0  0
 20 21  2  0  0  0  0
 21 22  1  0  0  0  0
 22 23  1  0  0  0  0
 22 24  1  0  0  0  0
 19 24  1  0  0  0  0
 24 25  1  0  0  0  0
 25 26  1  0  0  0  0
 26 27  2  0  0  0  0
 26 28  1  0  0  0  0
 25 29  2  0  0  0  0
 17 29  1  0  0  0  0
 16 30  4  0  0  0  0
 30 31  4  0  0  0  0
 13 31  4  0  0  0  0
  5 32  1  0  0  0  0
 32 33  1  0  0  0  0
  2 33  1  0  0  0  0
M  END
> <IC50(uM)>
0.55

> <Outcome>
1.0

> <BindingDB ID>
1100169

> <BindingDB MonomerID>
520628

> <BindingDB Ligand Name>
1-methyl-5-(2'-((4-methylpiperazin-1-yl)methyl)-[1,1'-biphenyl]-4-yl)-3a,7a- dihydro-1H-benzo[d][1,2,3]triazole-7-carboxylic acid;::US11147801, Compound 29

> <Curation/DataSource>
US Patent

> <Article DOI>
?

> <PMID>
?

> <Patent Number>
US11147801

> <Authors>
Nellore, K; Hosahalli, S

> <Link to Ligand in BindingDB>
http://www.bindingdb.org/bind/chemsearch/marvin/MolStructure.jsp?monomerid=520628

> <Link to Ligand-Target Pair in BindingDB>
http://www.bindingdb.org/jsp/dbsearch/PrimarySearch_ki.jsp?energyterm=kJ/mole&tag=r21&monomerid=520628&enzyme=Dihydroorotate+dehydrogenase&column=ki&startPg=0&Increment=50&submit=Search

> <PubChem CID>
?

> <PubChem SID>
?

$$$$

  Mrv2115 07222212352D          

 40 44  0  0  0  0            999 V2000
   -5.1659    1.4455    0.0000 C   0  0  0  0  0  0  0  0  0  0  0  0
   -5.5784    0.7310    0.0000 C   0  0  0  0  0  0  0  0  0  0  0  0
   -5.1659    0.0165    0.0000 C   0  0  0  0  0  0  0  0  0  0  0  0
   -4.3409    0.0165    0.0000 N   0  0  0  0  0  0  0  0  0  0  0  0
   -3.9284   -0.6979    0.0000 C   0  0  0  0  0  0  0  0  0  0  0  0
   -4.3409   -1.4124    0.0000 O   0  0  0  0  0  0  0  0  0  0  0  0
   -3.1034   -0.6979    0.0000 C   0  0  0  0  0  0  0  0  0  0  0  0
   -2.6909    0.0165    0.0000 C   0  0  0  0  0  0  0  0  0  0  0  0
   -1.8659    0.0165    0.0000 C   0  0  0  0  0  0  0  0  0  0  0  0
   -1.4534    0.7310    0.0000 F   0  0  0  0  0  0  0  0  0  0  0  0
   -1.4534   -0.6979    0.0000 C   0  0  0  0  0  0  0  0  0  0  0  0
   -0.6284   -0.6979    0.0000 N   0  0  0  0  0  0  0  0  0  0  0  0
   -0.1435   -1.3654    0.0000 N   0  0  0  0  0  0  0  0  0  0  0  0
    0.6411   -1.1104    0.0000 C   0  0  0  0  0  0  0  0  0  0  0  0
    0.6411   -0.2854    0.0000 N   0  0  0  0  0  0  0  0  0  0  0  0
   -0.1435   -0.0305    0.0000 C   0  0  0  0  0  0  0  0  0  0  0  0
   -0.3984    0.7541    0.0000 O   0  0  0  0  0  0  0  0  0  0  0  0
    1.3556    0.1271    0.0000 C   0  0  0  0  0  0  0  0  0  0  0  0
    2.0701   -0.2854    0.0000 C   0  0  0  0  0  0  0  0  0  0  0  0
    2.0701   -1.1104    0.0000 C   0  0  0  0  0  0  0  0  0  0  0  0
    1.3556   -1.5229    0.0000 C   0  0  0  0  0  0  0  0  0  0  0  0
   -1.8659   -1.4124    0.0000 C   0  0  0  0  0  0  0  0  0  0  0  0
   -2.6909   -1.4124    0.0000 C   0  0  0  0  0  0  0  0  0  0  0  0
   -3.1034   -2.1269    0.0000 O   0  0  0  0  0  0  0  0  0  0  0  0
   -2.6909   -2.8414    0.0000 C   0  0  0  0  0  0  0  0  0  0  0  0
   -1.8659   -2.8414    0.0000 C   0  0  0  0  0  0  0  0  0  0  0  0
   -3.1034   -3.5558    0.0000 C   0  0  0  0  0  0  0  0  0  0  0  0
   -2.6909   -4.2703    0.0000 C   0  0  0  0  0  0  0  0  0  0  0  0
   -3.1034   -4.9848    0.0000 C   0  0  0  0  0  0  0  0  0  0  0  0
   -3.9284   -4.9848    0.0000 C   0  0  0  0  0  0  0  0  0  0  0  0
   -4.3409   -4.2703    0.0000 C   0  0  0  0  0  0  0  0  0  0  0  0
   -3.9284   -3.5558    0.0000 C   0  0  0  0  0  0  0  0  0  0  0  0
   -5.5784   -0.6979    0.0000 C   0  0  0  0  0  0  0  0  0  0  0  0
   -6.4034   -0.6979    0.0000 C   0  0  0  0  0  0  0  0  0  0  0  0
   -6.8159    0.0165    0.0000 C   0  0  0  0  0  0  0  0  0  0  0  0
   -6.4034    0.7310    0.0000 C   0  0  0  0  0  0  0  0  0  0  0  0
   -6.8159    1.4455    0.0000 C   0  0  0  0  0  0  0  0  0  0  0  0
   -7.2284    2.1599    0.0000 F   0  0  0  0  0  0  0  0  0  0  0  0
   -6.1015    1.8580    0.0000 F   0  0  0  0  0  0  0  0  0  0  0  0
   -7.5304    1.0330    0.0000 F   0  0  0  0  0  0  0  0  0  0  0  0
  1  2  1  0  0  0  0
  2  3  4  0  0  0  0
  3  4  1  0  0  0  0
  4  5  1  0  0  0  0
  5  6  2  0  0  0  0
  5  7  1  0  0  0  0
  7  8  4  0  0  0  0
  8  9  4  0  0  0  0
  9 10  1  0  0  0  0
  9 11  4  0  0  0  0
 11 12  1  0  0  0  0
 12 13  4  0  0  0  0
 13 14  4  0  0  0  0
 14 15  4  0  0  0  0
 15 16  4  0  0  0  0
 12 16  4  0  0  0  0
 16 17  2  0  0  0  0
 15 18  1  0  0  0  0
 18 19  1  0  0  0  0
 19 20  1  0  0  0  0
 20 21  1  0  0  0  0
 14 21  1  0  0  0  0
 11 22  4  0  0  0  0
 22 23  4  0  0  0  0
  7 23  4  0  0  0  0
 23 24  1  0  0  0  0
 24 25  1  0  0  0  0
 25 26  1  0  0  0  0
 25 27  1  0  0  0  0
 27 28  1  0  0  0  0
 28 29  1  0  0  0  0
 29 30  1  0  0  0  0
 30 31  1  0  0  0  0
 31 32  1  0  0  0  0
 27 32  1  0  0  0  0
  3 33  4  0  0  0  0
 33 34  4  0  0  0  0
 34 35  4  0  0  0  0
 35 36  4  0  0  0  0
  2 36  4  0  0  0  0
 36 37  1  0  0  0  0
 37 38  1  0  0  0  0
 37 39  1  0  0  0  0
 37 40  1  0  0  0  0
M  END
> <IC50(uM)>
0.0235

> <Outcome>
1.0

> <BindingDB ID>
1020563

> <BindingDB MonomerID>
490502

> <BindingDB Ligand Name>
2-[(1S)-1-cyclohexylethoxy]-5-fluoro-N-[2-methyl-3-(trifluoromethyl)phenyl]-4-(3-oxo-5,6,7,8-tetrahydro[1,2,4]triazolo[4,3-a]pyridin-2(3H)-yl)benzamide::US10968216, Example 170

> <Curation/DataSource>
US Patent

> <Article DOI>
?

> <PMID>
?

> <Patent Number>
US10968216

> <Authors>
Gradl, SN; Nguyen, D; Eis, K; Gunther, J; Stellfeld, T; Janzer, A; Christian, S; Mueller, T; Sheikh, SE; Zhou, HJ; Zhao, C; Sykes, DB; Ferrara, SJ; Liu, K; Herbert, SA; Merz, C; Niehues, M; Nising, CF; Schafer, M; Zimmermann, K; Knablein, J; Thede, K; Faupel, T

> <Link to Ligand in BindingDB>
http://www.bindingdb.org/bind/chemsearch/marvin/MolStructure.jsp?monomerid=490502

> <Link to Ligand-Target Pair in BindingDB>
http://www.bindingdb.org/jsp/dbsearch/PrimarySearch_ki.jsp?energyterm=kJ/mole&tag=r21&monomerid=490502&enzyme=Dihydroorotate+dehydrogenase&column=ki&startPg=0&Increment=50&submit=Search

> <PubChem CID>
134473985

> <PubChem SID>
447117229

$$$$

  Mrv2115 07222212352D          

 25 27  0  0  0  0            999 V2000
    4.0668    2.3479    0.0000 C   0  0  0  0  0  0  0  0  0  0  0  0
    3.3523    1.9354    0.0000 C   0  0  0  0  0  0  0  0  0  0  0  0
    3.3523    1.1104    0.0000 C   0  0  0  0  0  0  0  0  0  0  0  0
    2.6378    0.6979    0.0000 C   0  0  0  0  0  0  0  0  0  0  0  0
    2.6378   -0.1271    0.0000 N   0  0  0  0  0  0  0  0  0  0  0  0
    3.3523   -0.5396    0.0000 C   0  0  0  0  0  0  0  0  0  0  0  0
    4.0668   -0.1271    0.0000 C   0  0  0  0  0  0  0  0  0  0  0  0
    4.7812   -0.5396    0.0000 C   0  0  0  0  0  0  0  0  0  0  0  0
    4.7812   -1.3646    0.0000 C   0  0  0  0  0  0  0  0  0  0  0  0
    5.4957   -1.7771    0.0000 C   0  0  0  0  0  0  0  0  0  0  0  0
    6.2102   -2.1896    0.0000 F   0  0  0  0  0  0  0  0  0  0  0  0
    5.9082   -1.0626    0.0000 F   0  0  0  0  0  0  0  0  0  0  0  0
    5.0832   -2.4915    0.0000 F   0  0  0  0  0  0  0  0  0  0  0  0
    4.0668   -1.7771    0.0000 C   0  0  0  0  0  0  0  0  0  0  0  0
    3.3523   -1.3646    0.0000 C   0  0  0  0  0  0  0  0  0  0  0  0
    1.9233    1.1104    0.0000 N   0  0  0  0  0  0  0  0  0  0  0  0
    1.1387    0.8555    0.0000 N   0  0  0  0  0  0  0  0  0  0  0  0
    0.6538    1.5229    0.0000 C   0  0  0  0  0  0  0  0  0  0  0  0
   -0.1712    1.5229    0.0000 C   0  0  0  0  0  0  0  0  0  0  0  0
   -0.9962    1.5229    0.0000 C   0  0  0  0  0  0  0  0  0  0  0  0
   -0.1712    2.3479    0.0000 C   0  0  0  0  0  0  0  0  0  0  0  0
   -0.1712    0.6979    0.0000 C   0  0  0  0  0  0  0  0  0  0  0  0
    1.1387    2.1904    0.0000 N   0  0  0  0  0  0  0  0  0  0  0  0
    1.9233    1.9354    0.0000 C   0  0  0  0  0  0  0  0  0  0  0  0
    2.6378    2.3479    0.0000 N   0  0  0  0  0  0  0  0  0  0  0  0
  1  2  1  0  0  0  0
  2  3  4  0  0  0  0
  3  4  4  0  0  0  0
  4  5  1  0  0  0  0
  5  6  1  0  0  0  0
  6  7  4  0  0  0  0
  7  8  4  0  0  0  0
  8  9  4  0  0  0  0
  9 10  1  0  0  0  0
 10 11  1  0  0  0  0
 10 12  1  0  0  0  0
 10 13  1  0  0  0  0
  9 14  4  0  0  0  0
 14 15  4  0  0  0  0
  6 15  4  0  0  0  0
  4 16  4  0  0  0  0
 16 17  4  0  0  0  0
 17 18  4  0  0  0  0
 18 19  1  0  0  0  0
 19 20  1  0  0  0  0
 19 21  1  0  0  0  0
 19 22  1  0  0  0  0
 18 23  4  0  0  0  0
 23 24  4  0  0  0  0
 16 24  4  0  0  0  0
 24 25  4  0  0  0  0
  2 25  4  0  0  0  0
M  END
> <IC50(uM)>
100.0

> <Outcome>
0.0

> <BindingDB ID>
50720170

> <BindingDB MonomerID>
50365240

> <BindingDB Ligand Name>
CHEMBL1956272

> <Curation/DataSource>
ChEMBL

> <Article DOI>
10.1021/jm200592f

> <PMID>
21696174

> <Patent Number>
?

> <Authors>
Coteron, JM; Marco, M; Esquivias, J; Deng, X; White, KL; White, J; Koltun, M; El Mazouni, F; Kokkonda, S; Katneni, K; Bhamidipati, R; Shackleford, DM; Angulo-Barturen, I; Ferrer, SB; Jimenez-Diaz, MB; Gamo, FJ; Goldsmith, EJ; Charman, WN; Bathurst, I; Floyd, D; Matthews, D; Burrows, JN; Rathod, PK; Charman, SA; Phillips, MA

> <Link to Ligand in BindingDB>
http://www.bindingdb.org/bind/chemsearch/marvin/MolStructure.jsp?monomerid=50365240

> <Link to Ligand-Target Pair in BindingDB>
http://www.bindingdb.org/jsp/dbsearch/PrimarySearch_ki.jsp?energyterm=kJ/mole&tag=r21&monomerid=50365240&enzyme=Dihydroorotate+dehydrogenase&column=ki&startPg=0&Increment=50&submit=Search

> <PubChem CID>
53392537

> <PubChem SID>
136969302

$$$$

  Mrv2115 07222212352D          

 33 36  0  0  0  0            999 V2000
   -3.1034    2.1599    0.0000 C   0  0  0  0  0  0  0  0  0  0  0  0
   -2.6909    1.4455    0.0000 C   0  0  0  0  0  0  0  0  0  0  0  0
   -1.8659    1.4455    0.0000 C   0  0  0  0  0  0  0  0  0  0  0  0
   -1.4534    0.7310    0.0000 N   0  0  0  0  0  0  0  0  0  0  0  0
   -3.1034    0.7310    0.0000 O   0  0  0  0  0  0  0  0  0  0  0  0
   -2.6909    0.0165    0.0000 C   0  0  0  0  0  0  0  0  0  0  0  0
   -1.8659    0.0165    0.0000 C   0  0  0  0  0  0  0  0  0  0  0  0
   -1.4534   -0.6979    0.0000 C   0  0  0  0  0  0  0  0  0  0  0  0
   -0.6284   -0.6979    0.0000 N   0  0  0  0  0  0  0  0  0  0  0  0
   -0.1435   -1.3654    0.0000 N   0  0  0  0  0  0  0  0  0  0  0  0
    0.6411   -1.1104    0.0000 C   0  0  0  0  0  0  0  0  0  0  0  0
    0.6411   -0.2854    0.0000 N   0  0  0  0  0  0  0  0  0  0  0  0
   -0.1435   -0.0305    0.0000 C   0  0  0  0  0  0  0  0  0  0  0  0
   -0.3984    0.7541    0.0000 O   0  0  0  0  0  0  0  0  0  0  0  0
    1.3556    0.1271    0.0000 C   0  0  0  0  0  0  0  0  0  0  0  0
    2.0701   -0.2854    0.0000 C   0  0  0  0  0  0  0  0  0  0  0  0
    2.0701   -1.1104    0.0000 C   0  0  0  0  0  0  0  0  0  0  0  0
    1.3556   -1.5229    0.0000 C   0  0  0  0  0  0  0  0  0  0  0  0
   -1.8659   -1.4124    0.0000 C   0  0  0  0  0  0  0  0  0  0  0  0
   -1.4534   -2.1269    0.0000 F   0  0  0  0  0  0  0  0  0  0  0  0
   -2.6909   -1.4124    0.0000 C   0  0  0  0  0  0  0  0  0  0  0  0
   -3.1034   -0.6979    0.0000 C   0  0  0  0  0  0  0  0  0  0  0  0
   -3.9284   -0.6979    0.0000 C   0  0  0  0  0  0  0  0  0  0  0  0
   -4.3409    0.0165    0.0000 O   0  0  0  0  0  0  0  0  0  0  0  0
   -4.3409   -1.4124    0.0000 N   0  0  0  0  0  0  0  0  0  0  0  0
   -5.1659   -1.4124    0.0000 C   0  0  0  0  0  0  0  0  0  0  0  0
   -5.5784   -0.6979    0.0000 C   0  0  0  0  0  0  0  0  0  0  0  0
   -5.1659    0.0165    0.0000 F   0  0  0  0  0  0  0  0  0  0  0  0
   -6.4034   -0.6979    0.0000 C   0  0  0  0  0  0  0  0  0  0  0  0
   -6.8159   -1.4124    0.0000 C   0  0  0  0  0  0  0  0  0  0  0  0
   -6.4034   -2.1269    0.0000 C   0  0  0  0  0  0  0  0  0  0  0  0
   -5.5784   -2.1269    0.0000 C   0  0  0  0  0  0  0  0  0  0  0  0
   -5.1659   -2.8414    0.0000 Cl  0  0  0  0  0  0  0  0  0  0  0  0
  1  2  1  0  0  0  0
  2  3  1  0  0  0  0
  3  4  1  0  0  0  0
  2  5  1  0  0  0  0
  5  6  1  0  0  0  0
  6  7  4  0  0  0  0
  7  8  4  0  0  0  0
  8  9  1  0  0  0  0
  9 10  4  0  0  0  0
 10 11  4  0  0  0  0
 11 12  4  0  0  0  0
 12 13  4  0  0  0  0
  9 13  4  0  0  0  0
 13 14  2  0  0  0  0
 12 15  1  0  0  0  0
 15 16  1  0  0  0  0
 16 17  1  0  0  0  0
 17 18  1  0  0  0  0
 11 18  1  0  0  0  0
  8 19  4  0  0  0  0
 19 20  1  0  0  0  0
 19 21  4  0  0  0  0
 21 22  4  0  0  0  0
  6 22  4  0  0  0  0
 22 23  1  0  0  0  0
 23 24  2  0  0  0  0
 23 25  1  0  0  0  0
 25 26  1  0  0  0  0
 26 27  4  0  0  0  0
 27 28  1  0  0  0  0
 27 29  4  0  0  0  0
 29 30  4  0  0  0  0
 30 31  4  0  0  0  0
 31 32  4  0  0  0  0
 26 32  4  0  0  0  0
 32 33  1  0  0  0  0
M  END
> <IC50(uM)>
1.6

> <Outcome>
0.0

> <BindingDB ID>
1020704

> <BindingDB MonomerID>
490630

> <BindingDB Ligand Name>
US10968216, Example 298::rac-2-{[1-aminopropan-2-yl]oxy}-N-(2-chloro-6-fluorophenyl)-5-fluoro-4-(3-oxo-5,6,7,8-tetrahydro[1,2,4]triazolo[4,3-a]pyridin-2(3H)-yl)benzamide, salt with hydrochloric acid

> <Curation/DataSource>
US Patent

> <Article DOI>
?

> <PMID>
?

> <Patent Number>
US10968216

> <Authors>
Gradl, SN; Nguyen, D; Eis, K; Gunther, J; Stellfeld, T; Janzer, A; Christian, S; Mueller, T; Sheikh, SE; Zhou, HJ; Zhao, C; Sykes, DB; Ferrara, SJ; Liu, K; Herbert, SA; Merz, C; Niehues, M; Nising, CF; Schafer, M; Zimmermann, K; Knablein, J; Thede, K; Faupel, T

> <Link to Ligand in BindingDB>
http://www.bindingdb.org/bind/chemsearch/marvin/MolStructure.jsp?monomerid=490630

> <Link to Ligand-Target Pair in BindingDB>
http://www.bindingdb.org/jsp/dbsearch/PrimarySearch_ki.jsp?energyterm=kJ/mole&tag=r21&monomerid=490630&enzyme=Dihydroorotate+dehydrogenase&column=ki&startPg=0&Increment=50&submit=Search

> <PubChem CID>
134474443

> <PubChem SID>
447117356

$$$$

  Mrv2115 07222212352D          

 20 22  0  0  0  0            999 V2000
   -0.0000   -4.1250    0.0000 C   0  0  0  0  0  0  0  0  0  0  0  0
   -0.7145   -3.7125    0.0000 C   0  0  0  0  0  0  0  0  0  0  0  0
   -1.4289   -4.1250    0.0000 C   0  0  0  0  0  0  0  0  0  0  0  0
   -2.1434   -3.7125    0.0000 C   0  0  0  0  0  0  0  0  0  0  0  0
   -2.1434   -2.8875    0.0000 C   0  0  0  0  0  0  0  0  0  0  0  0
   -1.4289   -2.4750    0.0000 C   0  0  0  0  0  0  0  0  0  0  0  0
   -0.7145   -2.8875    0.0000 C   0  0  0  0  0  0  0  0  0  0  0  0
    0.0000   -2.4750    0.0000 C   0  0  0  0  0  0  0  0  0  0  0  0
    0.0000   -1.6500    0.0000 C   0  0  0  0  0  0  0  0  0  0  0  0
    0.7145   -1.2375    0.0000 C   0  0  0  0  0  0  0  0  0  0  0  0
    0.7145   -0.4125    0.0000 C   0  0  0  0  0  0  0  0  0  0  0  0
    1.4289    0.0000    0.0000 C   0  0  0  0  0  0  0  0  0  0  0  0
    1.4289    0.8250    0.0000 O   0  0  0  0  0  0  0  0  0  0  0  0
    2.1434   -0.4125    0.0000 C   0  0  0  0  0  0  0  0  0  0  0  0
    2.8579    0.0000    0.0000 C   0  0  0  0  0  0  0  0  0  0  0  0
    3.5724   -0.4125    0.0000 C   0  0  0  0  0  0  0  0  0  0  0  0
    3.5724   -1.2375    0.0000 C   0  0  0  0  0  0  0  0  0  0  0  0
    2.8579   -1.6500    0.0000 C   0  0  0  0  0  0  0  0  0  0  0  0
    2.1434   -1.2375    0.0000 C   0  0  0  0  0  0  0  0  0  0  0  0
    1.4289   -1.6500    0.0000 N   0  0  0  0  0  0  0  0  0  0  0  0
  1  2  1  0  0  0  0
  2  3  4  0  0  0  0
  3  4  4  0  0  0  0
  4  5  4  0  0  0  0
  5  6  4  0  0  0  0
  6  7  4  0  0  0  0
  2  7  4  0  0  0  0
  8  7  1  4  0  0  0
  8  9  2  0  0  0  0
  9 10  1  0  0  0  0
 10 11  4  0  0  0  0
 11 12  4  0  0  0  0
 12 13  1  0  0  0  0
 12 14  4  0  0  0  0
 14 15  4  0  0  0  0
 15 16  4  0  0  0  0
 16 17  4  0  0  0  0
 17 18  4  0  0  0  0
 18 19  4  0  0  0  0
 14 19  4  0  0  0  0
 19 20  4  0  0  0  0
 10 20  4  0  0  0  0
M  END
> <IC50(uM)>
30.0

> <Outcome>
0.0

> <BindingDB ID>
200940; 248277

> <BindingDB MonomerID>
92602

> <BindingDB Ligand Name>
DHOD Inhibitor, 1::US8703811, 2

> <Curation/DataSource>
Curated from the literature by BindingDB; US Patent

> <Article DOI>
10.1074/jbc.M804990200; ?

> <PMID>
18842591; ?

> <Patent Number>
?; US8703811

> <Authors>
Patel, V; Booker, M; Kramer, M; Ross, L; Celatka, CA; Kennedy, LM; Dvorin, JD; Duraisingh, MT; Sliz, P; Wirth, DF; Clardy, J; Bastos, C; Booker, ML; Celatka, CA; Clardy, JC; Cortese, J; Patel, VP; Skerlj, R; Wiegand, RC; Wirth, DF

> <Link to Ligand in BindingDB>
http://www.bindingdb.org/bind/chemsearch/marvin/MolStructure.jsp?monomerid=92602

> <Link to Ligand-Target Pair in BindingDB>
http://www.bindingdb.org/jsp/dbsearch/PrimarySearch_ki.jsp?energyterm=kJ/mole&tag=r21&monomerid=92602&enzyme=Dihydroorotate+dehydrogenase&column=ki&startPg=0&Increment=50&submit=Search

> <PubChem CID>
5741460

> <PubChem SID>
160845099

$$$$

  Mrv2115 07222212352D          

 36 40  0  0  0  0            999 V2000
   -0.1712   -0.6979    0.0000 C   0  0  0  0  0  0  0  0  0  0  0  0
    0.6538   -0.6979    0.0000 C   0  0  0  0  0  0  0  0  0  0  0  0
    1.1387   -0.0305    0.0000 N   0  0  0  0  0  0  0  0  0  0  0  0
    1.9233   -0.2854    0.0000 C   0  0  0  0  0  0  0  0  0  0  0  0
    2.6378    0.1271    0.0000 C   0  0  0  0  0  0  0  0  0  0  0  0
    2.6378    0.9521    0.0000 C   0  0  0  0  0  0  0  0  0  0  0  0
    3.3523    1.3646    0.0000 O   0  0  0  0  0  0  0  0  0  0  0  0
    1.9233    1.3646    0.0000 O   0  0  0  0  0  0  0  0  0  0  0  0
    3.3523   -0.2854    0.0000 C   0  0  0  0  0  0  0  0  0  0  0  0
    3.3523   -1.1104    0.0000 C   0  0  0  0  0  0  0  0  0  0  0  0
    4.0668   -1.5229    0.0000 C   0  0  0  0  0  0  0  0  0  0  0  0
    4.7812   -1.1104    0.0000 C   0  0  0  0  0  0  0  0  0  0  0  0
    4.7812   -0.2854    0.0000 F   0  0  0  0  0  0  0  0  0  0  0  0
    5.4957   -1.5229    0.0000 C   0  0  0  0  0  0  0  0  0  0  0  0
    6.2102   -1.1104    0.0000 F   0  0  0  0  0  0  0  0  0  0  0  0
    5.4957   -2.3479    0.0000 C   0  0  0  0  0  0  0  0  0  0  0  0
    6.2102   -2.7604    0.0000 C   0  0  0  0  0  0  0  0  0  0  0  0
    6.9246   -2.3479    0.0000 C   0  0  0  0  0  0  0  0  0  0  0  0
    7.6391   -2.7604    0.0000 C   0  0  0  0  0  0  0  0  0  0  0  0
    7.6391   -3.5854    0.0000 C   0  0  0  0  0  0  0  0  0  0  0  0
    8.3536   -3.9979    0.0000 C   0  0  0  0  0  0  0  0  0  0  0  0
    8.3536   -4.8229    0.0000 N   0  0  0  0  0  0  0  0  0  0  0  0
    9.0681   -5.2354    0.0000 C   0  0  0  0  0  0  0  0  0  0  0  0
    9.0681   -6.0604    0.0000 C   0  0  0  0  0  0  0  0  0  0  0  0
    8.3536   -6.4729    0.0000 C   0  0  0  0  0  0  0  0  0  0  0  0
    7.6391   -6.0604    0.0000 C   0  0  0  0  0  0  0  0  0  0  0  0
    7.6391   -5.2354    0.0000 C   0  0  0  0  0  0  0  0  0  0  0  0
    6.9246   -3.9979    0.0000 C   0  0  0  0  0  0  0  0  0  0  0  0
    6.2102   -3.5854    0.0000 C   0  0  0  0  0  0  0  0  0  0  0  0
    4.7812   -2.7604    0.0000 C   0  0  0  0  0  0  0  0  0  0  0  0
    4.7812   -3.5854    0.0000 F   0  0  0  0  0  0  0  0  0  0  0  0
    4.0668   -2.3479    0.0000 C   0  0  0  0  0  0  0  0  0  0  0  0
    3.3523   -2.7604    0.0000 F   0  0  0  0  0  0  0  0  0  0  0  0
    2.6378   -1.5229    0.0000 C   0  0  0  0  0  0  0  0  0  0  0  0
    1.9233   -1.1104    0.0000 C   0  0  0  0  0  0  0  0  0  0  0  0
    1.1387   -1.3654    0.0000 N   0  0  0  0  0  0  0  0  0  0  0  0
  1  2  1  0  0  0  0
  2  3  4  0  0  0  0
  3  4  4  0  0  0  0
  4  5  4  0  0  0  0
  5  6  1  0  0  0  0
  6  7  2  0  0  0  0
  6  8  1  0  0  0  0
  5  9  4  0  0  0  0
  9 10  4  0  0  0  0
 10 11  1  0  0  0  0
 11 12  4  0  0  0  0
 12 13  1  0  0  0  0
 12 14  4  0  0  0  0
 14 15  1  0  0  0  0
 14 16  4  0  0  0  0
 16 17  1  0  0  0  0
 17 18  4  0  0  0  0
 18 19  4  0  0  0  0
 19 20  4  0  0  0  0
 20 21  1  0  0  0  0
 21 22  1  0  0  0  0
 22 23  1  0  0  0  0
 23 24  1  0  0  0  0
 24 25  1  0  0  0  0
 25 26  1  0  0  0  0
 26 27  1  0  0  0  0
 22 27  1  0  0  0  0
 20 28  4  0  0  0  0
 28 29  4  0  0  0  0
 17 29  4  0  0  0  0
 16 30  4  0  0  0  0
 30 31  1  0  0  0  0
 30 32  4  0  0  0  0
 11 32  4  0  0  0  0
 32 33  1  0  0  0  0
 10 34  4  0  0  0  0
 34 35  4  0  0  0  0
  4 35  4  0  0  0  0
 35 36  4  0  0  0  0
  2 36  4  0  0  0  0
M  STY  1   1 DAT
M  SAL   1  1  36
M  SDT   1 MRV_IMPLICIT_H                                        
M  SDD   1     0.5304   -0.4125    DR    ALL  0       0  
M  SED   1 IMPL_H1
M  END
> <IC50(uM)>
0.0055

> <Outcome>
1.0

> <BindingDB ID>
1045605

> <BindingDB MonomerID>
501663

> <BindingDB Ligand Name>
US11028054, Example 61

> <Curation/DataSource>
US Patent

> <Article DOI>
?

> <PMID>
?

> <Patent Number>
US11028054

> <Authors>
Thunuguntla, SS; Hosahalli, S; Panigrahi, SK; Schwarz, M; Arit, M

> <Link to Ligand in BindingDB>
http://www.bindingdb.org/bind/chemsearch/marvin/MolStructure.jsp?monomerid=501663

> <Link to Ligand-Target Pair in BindingDB>
http://www.bindingdb.org/jsp/dbsearch/PrimarySearch_ki.jsp?energyterm=kJ/mole&tag=r21&monomerid=501663&enzyme=Dihydroorotate+dehydrogenase&column=ki&startPg=0&Increment=50&submit=Search

> <PubChem CID>
?

> <PubChem SID>
?

$$$$

  Mrv2115 07222212352D          

 30 33  0  0  0  0            999 V2000
    3.9934    2.4750    0.0000 O   0  0  0  0  0  0  0  0  0  0  0  0
    3.2789    2.0625    0.0000 C   0  0  0  0  0  0  0  0  0  0  0  0
    2.5645    2.4750    0.0000 O   0  0  0  0  0  0  0  0  0  0  0  0
    3.2789    1.2375    0.0000 C   0  0  0  0  0  0  0  0  0  0  0  0
    3.9934    0.8250    0.0000 C   0  0  0  0  0  0  0  0  0  0  0  0
    3.9934    0.0000    0.0000 C   0  0  0  0  0  0  0  0  0  0  0  0
    3.2789   -0.4125    0.0000 C   0  0  0  0  0  0  0  0  0  0  0  0
    2.5645    0.0000    0.0000 C   0  0  0  0  0  0  0  0  0  0  0  0
    1.7798   -0.2549    0.0000 N   0  0  0  0  0  0  0  0  0  0  0  0
    1.2949    0.4125    0.0000 C   0  0  0  0  0  0  0  0  0  0  0  0
    0.4699    0.4125    0.0000 C   0  0  0  0  0  0  0  0  0  0  0  0
    0.0574   -0.3020    0.0000 C   0  0  0  0  0  0  0  0  0  0  0  0
    0.4699   -1.0164    0.0000 F   0  0  0  0  0  0  0  0  0  0  0  0
   -0.7676   -0.3020    0.0000 C   0  0  0  0  0  0  0  0  0  0  0  0
   -1.1801   -1.0164    0.0000 F   0  0  0  0  0  0  0  0  0  0  0  0
   -1.1801    0.4125    0.0000 C   0  0  0  0  0  0  0  0  0  0  0  0
   -2.0051    0.4125    0.0000 C   0  0  0  0  0  0  0  0  0  0  0  0
   -2.4176   -0.3020    0.0000 C   0  0  0  0  0  0  0  0  0  0  0  0
   -3.2426   -0.3020    0.0000 C   0  0  0  0  0  0  0  0  0  0  0  0
   -3.6551    0.4125    0.0000 C   0  0  0  0  0  0  0  0  0  0  0  0
   -4.4801    0.4125    0.0000 F   0  0  0  0  0  0  0  0  0  0  0  0
   -3.2426    1.1270    0.0000 C   0  0  0  0  0  0  0  0  0  0  0  0
   -3.6551    1.8414    0.0000 F   0  0  0  0  0  0  0  0  0  0  0  0
   -2.4176    1.1270    0.0000 C   0  0  0  0  0  0  0  0  0  0  0  0
   -0.7676    1.1270    0.0000 C   0  0  0  0  0  0  0  0  0  0  0  0
   -1.1801    1.8414    0.0000 F   0  0  0  0  0  0  0  0  0  0  0  0
    0.0574    1.1270    0.0000 C   0  0  0  0  0  0  0  0  0  0  0  0
    0.4699    1.8414    0.0000 F   0  0  0  0  0  0  0  0  0  0  0  0
    1.7798    1.0799    0.0000 N   0  0  0  0  0  0  0  0  0  0  0  0
    2.5645    0.8250    0.0000 C   0  0  0  0  0  0  0  0  0  0  0  0
  1  2  2  0  0  0  0
  2  3  1  0  0  0  0
  2  4  1  0  0  0  0
  4  5  4  0  0  0  0
  5  6  4  0  0  0  0
  6  7  4  0  0  0  0
  7  8  4  0  0  0  0
  8  9  4  0  0  0  0
  9 10  4  0  0  0  0
 10 11  1  0  0  0  0
 11 12  4  0  0  0  0
 12 13  1  0  0  0  0
 12 14  4  0  0  0  0
 14 15  1  0  0  0  0
 14 16  4  0  0  0  0
 16 17  1  0  0  0  0
 17 18  4  0  0  0  0
 18 19  4  0  0  0  0
 19 20  4  0  0  0  0
 20 21  1  0  0  0  0
 20 22  4  0  0  0  0
 22 23  1  0  0  0  0
 22 24  4  0  0  0  0
 17 24  4  0  0  0  0
 16 25  4  0  0  0  0
 25 26  1  0  0  0  0
 25 27  4  0  0  0  0
 11 27  4  0  0  0  0
 27 28  1  0  0  0  0
 10 29  4  0  0  0  0
 29 30  4  0  0  0  0
  4 30  4  0  0  0  0
  8 30  4  0  0  0  0
M  STY  1   1 DAT
M  SAL   1  1   9
M  SDT   1 MRV_IMPLICIT_H                                        
M  SDD   1     0.5304   -0.4125    DR    ALL  0       0  
M  SED   1 IMPL_H1
M  END
> <IC50(uM)>
1.22

> <Outcome>
0.0

> <BindingDB ID>
297832

> <BindingDB MonomerID>
155488

> <BindingDB Ligand Name>
US9006454, I130

> <Curation/DataSource>
US Patent

> <Article DOI>
?

> <PMID>
?

> <Patent Number>
US9006454

> <Authors>
Thunuguntla, SS; Subramanya, H; Kunnam, SR; Sanivaru Vijay, SR; Bingi, C; Kusanur, R; Schwarz, M; Arlt, M

> <Link to Ligand in BindingDB>
http://www.bindingdb.org/bind/chemsearch/marvin/MolStructure.jsp?monomerid=155488

> <Link to Ligand-Target Pair in BindingDB>
http://www.bindingdb.org/jsp/dbsearch/PrimarySearch_ki.jsp?energyterm=kJ/mole&tag=r21&monomerid=155488&enzyme=Dihydroorotate+dehydrogenase&column=ki&startPg=0&Increment=50&submit=Search

> <PubChem CID>
58073826

> <PubChem SID>
253658425

$$$$

  Mrv2115 07222212352D          

 31 34  0  0  0  0            999 V2000
   -0.7145    1.2375    0.0000 C   0  0  0  0  0  0  0  0  0  0  0  0
    0.0000    0.8250    0.0000 C   0  0  0  0  0  0  0  0  0  0  0  0
    0.0000   -0.0000    0.0000 O   0  0  0  0  0  0  0  0  0  0  0  0
    0.7145   -0.4125    0.0000 C   0  0  0  0  0  0  0  0  0  0  0  0
    1.4289   -0.0000    0.0000 O   0  0  0  0  0  0  0  0  0  0  0  0
    0.7145   -1.2375    0.0000 C   0  0  0  0  0  0  0  0  0  0  0  0
    1.3819   -1.7224    0.0000 S   0  0  0  0  0  0  0  0  0  0  0  0
    1.1270   -2.5070    0.0000 C   0  0  0  0  0  0  0  0  0  0  0  0
    1.6119   -3.1745    0.0000 N   0  0  0  0  0  0  0  0  0  0  0  0
    1.2763   -3.9282    0.0000 C   0  0  0  0  0  0  0  0  0  0  0  0
    1.7613   -4.5956    0.0000 C   0  0  0  0  0  0  0  0  0  0  0  0
    1.4257   -5.3493    0.0000 C   0  0  0  0  0  0  0  0  0  0  0  0
    0.6052   -5.4355    0.0000 C   0  0  0  0  0  0  0  0  0  0  0  0
    0.2697   -6.1892    0.0000 O   0  0  0  0  0  0  0  0  0  0  0  0
    0.7546   -6.8566    0.0000 C   0  0  0  0  0  0  0  0  0  0  0  0
    1.5751   -6.7704    0.0000 C   0  0  0  0  0  0  0  0  0  0  0  0
    2.0600   -7.4378    0.0000 C   0  0  0  0  0  0  0  0  0  0  0  0
    1.7244   -8.1915    0.0000 C   0  0  0  0  0  0  0  0  0  0  0  0
    0.9040   -8.2777    0.0000 C   0  0  0  0  0  0  0  0  0  0  0  0
    0.4190   -7.6103    0.0000 C   0  0  0  0  0  0  0  0  0  0  0  0
    0.1203   -4.7681    0.0000 C   0  0  0  0  0  0  0  0  0  0  0  0
   -0.7002   -4.8543    0.0000 Cl  0  0  0  0  0  0  0  0  0  0  0  0
    0.4559   -4.0144    0.0000 C   0  0  0  0  0  0  0  0  0  0  0  0
    0.3020   -2.5070    0.0000 N   0  0  0  0  0  0  0  0  0  0  0  0
    0.0470   -1.7224    0.0000 C   0  0  0  0  0  0  0  0  0  0  0  0
   -0.7376   -1.4675    0.0000 C   0  0  0  0  0  0  0  0  0  0  0  0
   -1.3507   -2.0195    0.0000 C   0  0  0  0  0  0  0  0  0  0  0  0
   -2.1353   -1.7646    0.0000 C   0  0  0  0  0  0  0  0  0  0  0  0
   -2.3068   -0.9576    0.0000 C   0  0  0  0  0  0  0  0  0  0  0  0
   -1.6937   -0.4056    0.0000 C   0  0  0  0  0  0  0  0  0  0  0  0
   -0.9091   -0.6605    0.0000 C   0  0  0  0  0  0  0  0  0  0  0  0
  1  2  1  0  0  0  0
  2  3  1  0  0  0  0
  3  4  1  0  0  0  0
  4  5  2  0  0  0  0
  4  6  1  0  0  0  0
  6  7  4  0  0  0  0
  7  8  4  0  0  0  0
  8  9  1  0  0  0  0
  9 10  1  0  0  0  0
 10 11  4  0  0  0  0
 11 12  4  0  0  0  0
 12 13  4  0  0  0  0
 13 14  1  0  0  0  0
 14 15  1  0  0  0  0
 15 16  4  0  0  0  0
 16 17  4  0  0  0  0
 17 18  4  0  0  0  0
 18 19  4  0  0  0  0
 19 20  4  0  0  0  0
 15 20  4  0  0  0  0
 13 21  4  0  0  0  0
 21 22  1  0  0  0  0
 21 23  4  0  0  0  0
 10 23  4  0  0  0  0
  8 24  4  0  0  0  0
 24 25  4  0  0  0  0
  6 25  4  0  0  0  0
 25 26  1  0  0  0  0
 26 27  4  0  0  0  0
 27 28  4  0  0  0  0
 28 29  4  0  0  0  0
 29 30  4  0  0  0  0
 30 31  4  0  0  0  0
 26 31  4  0  0  0  0
M  END
> <IC50(uM)>
10.0

> <Outcome>
0.0

> <BindingDB ID>
50312497

> <BindingDB MonomerID>
50071805

> <BindingDB Ligand Name>
CHEMBL3410617

> <Curation/DataSource>
ChEMBL

> <Article DOI>
10.1021/jm501127s

> <PMID>
25580811

> <Patent Number>
?

> <Authors>
Zhu, J; Han, L; Diao, Y; Ren, X; Xu, M; Xu, L; Li, S; Li, Q; Dong, D; Huang, J; Liu, X; Zhao, Z; Wang, R; Zhu, L; Xu, Y; Qian, X; Li, H

> <Link to Ligand in BindingDB>
http://www.bindingdb.org/bind/chemsearch/marvin/MolStructure.jsp?monomerid=50071805

> <Link to Ligand-Target Pair in BindingDB>
http://www.bindingdb.org/jsp/dbsearch/PrimarySearch_ki.jsp?energyterm=kJ/mole&tag=r21&monomerid=50071805&enzyme=Dihydroorotate+dehydrogenase&column=ki&startPg=0&Increment=50&submit=Search

> <PubChem CID>
118732525

> <PubChem SID>
103965515

$$$$

  Mrv2115 07222212352D          

 35 38  0  0  0  0            999 V2000
   -5.1659    1.4455    0.0000 C   0  0  0  0  0  0  0  0  0  0  0  0
   -5.5784    0.7310    0.0000 C   0  0  0  0  0  0  0  0  0  0  0  0
   -6.4034    0.7310    0.0000 C   0  0  0  0  0  0  0  0  0  0  0  0
   -6.8159    0.0165    0.0000 C   0  0  0  0  0  0  0  0  0  0  0  0
   -6.4034   -0.6979    0.0000 N   0  0  0  0  0  0  0  0  0  0  0  0
   -5.5784   -0.6979    0.0000 C   0  0  0  0  0  0  0  0  0  0  0  0
   -5.1659   -1.4124    0.0000 Cl  0  0  0  0  0  0  0  0  0  0  0  0
   -5.1659    0.0165    0.0000 C   0  0  0  0  0  0  0  0  0  0  0  0
   -4.3409    0.0165    0.0000 N   0  0  0  0  0  0  0  0  0  0  0  0
   -3.9284   -0.6979    0.0000 C   0  0  0  0  0  0  0  0  0  0  0  0
   -4.3409   -1.4124    0.0000 O   0  0  0  0  0  0  0  0  0  0  0  0
   -3.1034   -0.6979    0.0000 C   0  0  0  0  0  0  0  0  0  0  0  0
   -2.6909    0.0165    0.0000 C   0  0  0  0  0  0  0  0  0  0  0  0
   -1.8659    0.0165    0.0000 C   0  0  0  0  0  0  0  0  0  0  0  0
   -1.4534    0.7310    0.0000 F   0  0  0  0  0  0  0  0  0  0  0  0
   -1.4534   -0.6979    0.0000 C   0  0  0  0  0  0  0  0  0  0  0  0
   -0.6284   -0.6979    0.0000 N   0  0  0  0  0  0  0  0  0  0  0  0
   -0.1435   -1.3654    0.0000 N   0  0  0  0  0  0  0  0  0  0  0  0
    0.6411   -1.1104    0.0000 C   0  0  0  0  0  0  0  0  0  0  0  0
    0.6411   -0.2854    0.0000 N   0  0  0  0  0  0  0  0  0  0  0  0
   -0.1435   -0.0305    0.0000 C   0  0  0  0  0  0  0  0  0  0  0  0
   -0.3984    0.7541    0.0000 O   0  0  0  0  0  0  0  0  0  0  0  0
    1.3556    0.1271    0.0000 C   0  0  0  0  0  0  0  0  0  0  0  0
    2.0701   -0.2854    0.0000 C   0  0  0  0  0  0  0  0  0  0  0  0
    2.0701   -1.1104    0.0000 C   0  0  0  0  0  0  0  0  0  0  0  0
    1.3556   -1.5229    0.0000 C   0  0  0  0  0  0  0  0  0  0  0  0
   -1.8659   -1.4124    0.0000 C   0  0  0  0  0  0  0  0  0  0  0  0
   -2.6909   -1.4124    0.0000 C   0  0  0  0  0  0  0  0  0  0  0  0
   -3.1034   -2.1269    0.0000 O   0  0  0  0  0  0  0  0  0  0  0  0
   -2.6909   -2.8414    0.0000 C   0  0  0  0  0  0  0  0  0  0  0  0
   -1.8659   -2.8414    0.0000 C   0  0  0  0  0  0  0  0  0  0  0  0
   -3.1034   -3.5558    0.0000 C   0  0  0  0  0  0  0  0  0  0  0  0
   -3.8179   -3.1433    0.0000 F   0  0  0  0  0  0  0  0  0  0  0  0
   -2.3890   -3.9683    0.0000 F   0  0  0  0  0  0  0  0  0  0  0  0
   -3.5159   -4.2703    0.0000 F   0  0  0  0  0  0  0  0  0  0  0  0
  1  2  1  0  0  0  0
  2  3  4  0  0  0  0
  3  4  4  0  0  0  0
  4  5  4  0  0  0  0
  5  6  4  0  0  0  0
  6  7  1  0  0  0  0
  6  8  4  0  0  0  0
  2  8  4  0  0  0  0
  8  9  1  0  0  0  0
  9 10  1  0  0  0  0
 10 11  2  0  0  0  0
 10 12  1  0  0  0  0
 12 13  4  0  0  0  0
 13 14  4  0  0  0  0
 14 15  1  0  0  0  0
 14 16  4  0  0  0  0
 16 17  1  0  0  0  0
 17 18  4  0  0  0  0
 18 19  4  0  0  0  0
 19 20  4  0  0  0  0
 20 21  4  0  0  0  0
 17 21  4  0  0  0  0
 21 22  2  0  0  0  0
 20 23  1  0  0  0  0
 23 24  1  0  0  0  0
 24 25  1  0  0  0  0
 25 26  1  0  0  0  0
 19 26  1  0  0  0  0
 16 27  4  0  0  0  0
 27 28  4  0  0  0  0
 12 28  4  0  0  0  0
 28 29  1  0  0  0  0
 29 30  1  0  0  0  0
 30 31  1  0  0  0  0
 30 32  1  0  0  0  0
 32 33  1  0  0  0  0
 32 34  1  0  0  0  0
 32 35  1  0  0  0  0
M  END
> <IC50(uM)>
0.015

> <Outcome>
1.0

> <BindingDB ID>
1020446

> <BindingDB MonomerID>
490397

> <BindingDB Ligand Name>
N-(2-chloro-4-methylpyridin-3-yl)-5-fluoro-4-(3-oxo-5,6,7,8-tetrahydro[1,2,4]triazolo[4,3-a]pyridin-2(3H)-yl)-2-{[(2S)-1,1,1-trifluoropropan-2-yl]oxy}benzamide::US10968216, Example 65

> <Curation/DataSource>
US Patent

> <Article DOI>
?

> <PMID>
?

> <Patent Number>
US10968216

> <Authors>
Gradl, SN; Nguyen, D; Eis, K; Gunther, J; Stellfeld, T; Janzer, A; Christian, S; Mueller, T; Sheikh, SE; Zhou, HJ; Zhao, C; Sykes, DB; Ferrara, SJ; Liu, K; Herbert, SA; Merz, C; Niehues, M; Nising, CF; Schafer, M; Zimmermann, K; Knablein, J; Thede, K; Faupel, T

> <Link to Ligand in BindingDB>
http://www.bindingdb.org/bind/chemsearch/marvin/MolStructure.jsp?monomerid=490397

> <Link to Ligand-Target Pair in BindingDB>
http://www.bindingdb.org/jsp/dbsearch/PrimarySearch_ki.jsp?energyterm=kJ/mole&tag=r21&monomerid=490397&enzyme=Dihydroorotate+dehydrogenase&column=ki&startPg=0&Increment=50&submit=Search

> <PubChem CID>
134474337

> <PubChem SID>
447117124

$$$$

  Mrv2115 07222212352D          

 23 25  0  0  0  0            999 V2000
    2.0367    0.3509    0.0000 N   0  0  0  0  0  0  0  0  0  0  0  0
    2.0367   -0.4741    0.0000 C   0  0  0  0  0  0  0  0  0  0  0  0
    2.0367   -1.2991    0.0000 C   0  0  0  0  0  0  0  0  0  0  0  0
    2.7041   -1.7840    0.0000 C   0  0  0  0  0  0  0  0  0  0  0  0
    3.4888   -1.5291    0.0000 C   0  0  0  0  0  0  0  0  0  0  0  0
    3.7437   -0.7445    0.0000 C   0  0  0  0  0  0  0  0  0  0  0  0
    4.5687   -0.7445    0.0000 C   0  0  0  0  0  0  0  0  0  0  0  0
    4.8236   -1.5291    0.0000 C   0  0  0  0  0  0  0  0  0  0  0  0
    4.1562   -2.0140    0.0000 C   0  0  0  0  0  0  0  0  0  0  0  0
    2.4492   -2.5687    0.0000 N   0  0  0  0  0  0  0  0  0  0  0  0
    1.6242   -2.5687    0.0000 N   0  0  0  0  0  0  0  0  0  0  0  0
    1.3693   -1.7840    0.0000 C   0  0  0  0  0  0  0  0  0  0  0  0
    0.5846   -1.5291    0.0000 N   0  0  0  0  0  0  0  0  0  0  0  0
    0.4131   -0.7221    0.0000 C   0  0  0  0  0  0  0  0  0  0  0  0
   -0.3715   -0.4672    0.0000 C   0  0  0  0  0  0  0  0  0  0  0  0
   -0.5430    0.3398    0.0000 C   0  0  0  0  0  0  0  0  0  0  0  0
    0.0701    0.8918    0.0000 C   0  0  0  0  0  0  0  0  0  0  0  0
   -0.1015    1.6988    0.0000 C   0  0  0  0  0  0  0  0  0  0  0  0
   -0.2730    2.5058    0.0000 F   0  0  0  0  0  0  0  0  0  0  0  0
    0.7055    1.8703    0.0000 F   0  0  0  0  0  0  0  0  0  0  0  0
   -0.9084    1.5273    0.0000 F   0  0  0  0  0  0  0  0  0  0  0  0
    0.8547    0.6369    0.0000 C   0  0  0  0  0  0  0  0  0  0  0  0
    1.0262   -0.1701    0.0000 C   0  0  0  0  0  0  0  0  0  0  0  0
  1  2  3  0  0  0  0
  2  3  1  0  0  0  0
  3  4  4  0  0  0  0
  4  5  1  0  0  0  0
  5  6  1  0  0  0  0
  6  7  1  0  0  0  0
  7  8  1  0  0  0  0
  8  9  1  0  0  0  0
  5  9  1  0  0  0  0
  4 10  4  0  0  0  0
 10 11  4  0  0  0  0
 11 12  4  0  0  0  0
  3 12  4  0  0  0  0
 12 13  1  0  0  0  0
 13 14  1  0  0  0  0
 14 15  4  0  0  0  0
 15 16  4  0  0  0  0
 16 17  4  0  0  0  0
 17 18  1  0  0  0  0
 18 19  1  0  0  0  0
 18 20  1  0  0  0  0
 18 21  1  0  0  0  0
 17 22  4  0  0  0  0
 22 23  4  0  0  0  0
 14 23  4  0  0  0  0
M  STY  1   1 DAT
M  SAL   1  1  11
M  SDT   1 MRV_IMPLICIT_H                                        
M  SDD   1     0.5304   -0.4125    DR    ALL  0       0  
M  SED   1 IMPL_H1
M  END
> <IC50(uM)>
50.0

> <Outcome>
0.0

> <BindingDB ID>
50786774

> <BindingDB MonomerID>
50066582

> <BindingDB Ligand Name>
5-Cyclopentyl-3-(4-trifluoromethyl-phenylamino)-1H-pyrazole-4-carbonitrile::CHEMBL118489

> <Curation/DataSource>
ChEMBL

> <Article DOI>
10.1021/jm981028c

> <PMID>
9719606

> <Patent Number>
?

> <Authors>
Papageorgiou, C; Albert, R; Floersheim, P; Lemaire, M; Bitch, F; Weber, HP; Andersen, E; Hungerford, V; Schreier, MH

> <Link to Ligand in BindingDB>
http://www.bindingdb.org/bind/chemsearch/marvin/MolStructure.jsp?monomerid=50066582

> <Link to Ligand-Target Pair in BindingDB>
http://www.bindingdb.org/jsp/dbsearch/PrimarySearch_ki.jsp?energyterm=kJ/mole&tag=r21&monomerid=50066582&enzyme=Dihydroorotate+dehydrogenase&column=ki&startPg=0&Increment=50&submit=Search

> <PubChem CID>
10519719

> <PubChem SID>
103961202

$$$$

  Mrv2115 07222212352D          

 33 36  0  0  0  0            999 V2000
   -0.6284    2.1599    0.0000 C   0  0  0  0  0  0  0  0  0  0  0  0
   -1.4534    2.1599    0.0000 C   0  0  0  0  0  0  0  0  0  0  0  0
   -1.8659    1.4455    0.0000 C   0  0  0  0  0  0  0  0  0  0  0  0
   -2.6909    1.4455    0.0000 C   0  0  0  0  0  0  0  0  0  0  0  0
   -3.1034    2.1599    0.0000 C   0  0  0  0  0  0  0  0  0  0  0  0
   -3.1034    0.7310    0.0000 O   0  0  0  0  0  0  0  0  0  0  0  0
   -2.6909    0.0165    0.0000 C   0  0  0  0  0  0  0  0  0  0  0  0
   -1.8659    0.0165    0.0000 C   0  0  0  0  0  0  0  0  0  0  0  0
   -1.4534   -0.6979    0.0000 C   0  0  0  0  0  0  0  0  0  0  0  0
   -0.6284   -0.6979    0.0000 N   0  0  0  0  0  0  0  0  0  0  0  0
   -0.1435   -1.3654    0.0000 N   0  0  0  0  0  0  0  0  0  0  0  0
    0.6411   -1.1104    0.0000 C   0  0  0  0  0  0  0  0  0  0  0  0
    0.6411   -0.2854    0.0000 N   0  0  0  0  0  0  0  0  0  0  0  0
   -0.1435   -0.0305    0.0000 C   0  0  0  0  0  0  0  0  0  0  0  0
   -0.3984    0.7541    0.0000 O   0  0  0  0  0  0  0  0  0  0  0  0
    1.3556    0.1271    0.0000 C   0  0  0  0  0  0  0  0  0  0  0  0
    2.0701   -0.2854    0.0000 C   0  0  0  0  0  0  0  0  0  0  0  0
    2.0701   -1.1104    0.0000 C   0  0  0  0  0  0  0  0  0  0  0  0
    1.3556   -1.5229    0.0000 C   0  0  0  0  0  0  0  0  0  0  0  0
   -1.8659   -1.4124    0.0000 C   0  0  0  0  0  0  0  0  0  0  0  0
   -1.4534   -2.1269    0.0000 F   0  0  0  0  0  0  0  0  0  0  0  0
   -2.6909   -1.4124    0.0000 C   0  0  0  0  0  0  0  0  0  0  0  0
   -3.1034   -0.6979    0.0000 C   0  0  0  0  0  0  0  0  0  0  0  0
   -3.9284   -0.6979    0.0000 C   0  0  0  0  0  0  0  0  0  0  0  0
   -4.3409    0.0165    0.0000 O   0  0  0  0  0  0  0  0  0  0  0  0
   -4.3409   -1.4124    0.0000 N   0  0  0  0  0  0  0  0  0  0  0  0
   -3.9284   -2.1269    0.0000 C   0  0  0  0  0  0  0  0  0  0  0  0
   -3.1034   -2.1269    0.0000 N   0  0  0  0  0  0  0  0  0  0  0  0
   -2.6909   -2.8414    0.0000 C   0  0  0  0  0  0  0  0  0  0  0  0
   -3.1034   -3.5558    0.0000 C   0  0  0  0  0  0  0  0  0  0  0  0
   -3.9284   -3.5558    0.0000 C   0  0  0  0  0  0  0  0  0  0  0  0
   -4.3409   -2.8414    0.0000 C   0  0  0  0  0  0  0  0  0  0  0  0
   -5.1659   -2.8414    0.0000 Cl  0  0  0  0  0  0  0  0  0  0  0  0
  1  2  1  0  0  0  0
  2  3  1  0  0  0  0
  3  4  1  0  0  0  0
  4  5  1  0  0  0  0
  4  6  1  0  0  0  0
  6  7  1  0  0  0  0
  7  8  4  0  0  0  0
  8  9  4  0  0  0  0
  9 10  1  0  0  0  0
 10 11  4  0  0  0  0
 11 12  4  0  0  0  0
 12 13  4  0  0  0  0
 13 14  4  0  0  0  0
 10 14  4  0  0  0  0
 14 15  2  0  0  0  0
 13 16  1  0  0  0  0
 16 17  1  0  0  0  0
 17 18  1  0  0  0  0
 18 19  1  0  0  0  0
 12 19  1  0  0  0  0
  9 20  4  0  0  0  0
 20 21  1  0  0  0  0
 20 22  4  0  0  0  0
 22 23  4  0  0  0  0
  7 23  4  0  0  0  0
 23 24  1  0  0  0  0
 24 25  2  0  0  0  0
 24 26  1  0  0  0  0
 26 27  1  0  0  0  0
 27 28  4  0  0  0  0
 28 29  4  0  0  0  0
 29 30  4  0  0  0  0
 30 31  4  0  0  0  0
 31 32  4  0  0  0  0
 27 32  4  0  0  0  0
 32 33  1  0  0  0  0
M  END
> <IC50(uM)>
0.035

> <Outcome>
1.0

> <BindingDB ID>
1020394

> <BindingDB MonomerID>
490350

> <BindingDB Ligand Name>
N-(3-chloropyridin-2-yl)-5-fluoro-4-(3-oxo-5,6,7,8-tetrahydro[1,2,4]triazolo[4,3-a]pyridin-2(3H)-yl)-2-[(2S)-pentan-2-yloxy]benzamide::US10968216, Example 18

> <Curation/DataSource>
US Patent

> <Article DOI>
?

> <PMID>
?

> <Patent Number>
US10968216

> <Authors>
Gradl, SN; Nguyen, D; Eis, K; Gunther, J; Stellfeld, T; Janzer, A; Christian, S; Mueller, T; Sheikh, SE; Zhou, HJ; Zhao, C; Sykes, DB; Ferrara, SJ; Liu, K; Herbert, SA; Merz, C; Niehues, M; Nising, CF; Schafer, M; Zimmermann, K; Knablein, J; Thede, K; Faupel, T

> <Link to Ligand in BindingDB>
http://www.bindingdb.org/bind/chemsearch/marvin/MolStructure.jsp?monomerid=490350

> <Link to Ligand-Target Pair in BindingDB>
http://www.bindingdb.org/jsp/dbsearch/PrimarySearch_ki.jsp?energyterm=kJ/mole&tag=r21&monomerid=490350&enzyme=Dihydroorotate+dehydrogenase&column=ki&startPg=0&Increment=50&submit=Search

> <PubChem CID>
134474475

> <PubChem SID>
447117077

$$$$

  Mrv2115 07222212352D          

 36 38  0  0  0  0            999 V2000
    2.1434   -3.7125    0.0000 C   0  0  0  0  0  0  0  0  0  0  0  0
    1.4289   -4.1250    0.0000 C   0  0  0  0  0  0  0  0  0  0  0  0
    1.4289   -4.9500    0.0000 N   0  0  0  0  0  0  0  0  0  0  0  0
    0.7615   -5.4349    0.0000 C   0  0  0  0  0  0  0  0  0  0  0  0
   -0.0231   -5.1800    0.0000 C   0  0  0  0  0  0  0  0  0  0  0  0
   -0.1946   -4.3730    0.0000 O   0  0  0  0  0  0  0  0  0  0  0  0
   -0.6362   -5.7320    0.0000 O   0  0  0  0  0  0  0  0  0  0  0  0
    1.0164   -6.2195    0.0000 N   0  0  0  0  0  0  0  0  0  0  0  0
    1.8414   -6.2195    0.0000 N   0  0  0  0  0  0  0  0  0  0  0  0
    2.3264   -6.8870    0.0000 C   0  0  0  0  0  0  0  0  0  0  0  0
    3.1468   -6.8007    0.0000 C   0  0  0  0  0  0  0  0  0  0  0  0
    3.6318   -7.4682    0.0000 C   0  0  0  0  0  0  0  0  0  0  0  0
    4.4522   -7.3820    0.0000 O   0  0  0  0  0  0  0  0  0  0  0  0
    4.7878   -6.6283    0.0000 C   0  0  0  0  0  0  0  0  0  0  0  0
    4.3029   -5.9608    0.0000 C   0  0  0  0  0  0  0  0  0  0  0  0
    5.6083   -6.5420    0.0000 C   0  0  0  0  0  0  0  0  0  0  0  0
    5.6945   -7.3625    0.0000 F   0  0  0  0  0  0  0  0  0  0  0  0
    5.5221   -5.7216    0.0000 F   0  0  0  0  0  0  0  0  0  0  0  0
    6.4288   -6.4558    0.0000 F   0  0  0  0  0  0  0  0  0  0  0  0
    3.2962   -8.2219    0.0000 C   0  0  0  0  0  0  0  0  0  0  0  0
    3.7811   -8.8893    0.0000 C   0  0  0  0  0  0  0  0  0  0  0  0
    3.4456   -9.6430    0.0000 O   0  0  0  0  0  0  0  0  0  0  0  0
    4.6016   -8.8031    0.0000 N   0  0  0  0  0  0  0  0  0  0  0  0
    5.0865   -9.4705    0.0000 C   0  0  0  0  0  0  0  0  0  0  0  0
    5.9070   -9.3843    0.0000 C   0  0  0  0  0  0  0  0  0  0  0  0
    6.2426   -8.6306    0.0000 C   0  0  0  0  0  0  0  0  0  0  0  0
    6.3919  -10.0517    0.0000 C   0  0  0  0  0  0  0  0  0  0  0  0
    6.0564  -10.8054    0.0000 C   0  0  0  0  0  0  0  0  0  0  0  0
    5.2359  -10.8916    0.0000 C   0  0  0  0  0  0  0  0  0  0  0  0
    4.7510  -10.2242    0.0000 C   0  0  0  0  0  0  0  0  0  0  0  0
    3.9305  -10.3104    0.0000 F   0  0  0  0  0  0  0  0  0  0  0  0
    2.4757   -8.3081    0.0000 C   0  0  0  0  0  0  0  0  0  0  0  0
    1.9908   -7.6407    0.0000 C   0  0  0  0  0  0  0  0  0  0  0  0
    1.1703   -7.7269    0.0000 F   0  0  0  0  0  0  0  0  0  0  0  0
    2.0964   -5.4349    0.0000 C   0  0  0  0  0  0  0  0  0  0  0  0
    2.8810   -5.1800    0.0000 O   0  0  0  0  0  0  0  0  0  0  0  0
  1  2  1  0  0  0  0
  2  3  1  0  0  0  0
  3  4  4  0  0  0  0
  4  5  1  0  0  0  0
  5  6  2  0  0  0  0
  5  7  1  0  0  0  0
  4  8  4  0  0  0  0
  8  9  4  0  0  0  0
  9 10  1  0  0  0  0
 10 11  4  0  0  0  0
 11 12  4  0  0  0  0
 12 13  1  0  0  0  0
 13 14  1  0  0  0  0
 14 15  1  0  0  0  0
 14 16  1  0  0  0  0
 16 17  1  0  0  0  0
 16 18  1  0  0  0  0
 16 19  1  0  0  0  0
 12 20  4  0  0  0  0
 20 21  1  0  0  0  0
 21 22  2  0  0  0  0
 21 23  1  0  0  0  0
 23 24  1  0  0  0  0
 24 25  4  0  0  0  0
 25 26  1  0  0  0  0
 25 27  4  0  0  0  0
 27 28  4  0  0  0  0
 28 29  4  0  0  0  0
 29 30  4  0  0  0  0
 24 30  4  0  0  0  0
 30 31  1  0  0  0  0
 20 32  4  0  0  0  0
 32 33  4  0  0  0  0
 10 33  4  0  0  0  0
 33 34  1  0  0  0  0
  9 35  4  0  0  0  0
  3 35  4  0  0  0  0
 35 36  2  0  0  0  0
M  END
> <IC50(uM)>
0.0085

> <Outcome>
1.0

> <BindingDB ID>
972676; 1098830

> <BindingDB MonomerID>
470554

> <BindingDB Ligand Name>
4-ethyl-1-(2-fluoro-4-[(2-fluoro-6-methylphenyl)carbamoyl]-5-{[(2S)-1,1,1-trifluoropropan-2-yl]oxy}phenyl)-5-oxo-4,5-dihydro-1H-1,2,4-triazole-3-carboxylic acid::US10815215, Example 214; 4-ethyl-1-(2-fluoro-4-[(2-fluoro-6-methylphenyl)carbamoyl]-5-{[(2S)-1,1,1-trifluoropropan-2-yl]oxy}phenyl)-5-oxo-4,5-dihydro-1H-1,2,4-triazole-3-carboxylic acid::US10815215, Example 214::US11130745, Example 214

> <Curation/DataSource>
US Patent

> <Article DOI>
?

> <PMID>
?

> <Patent Number>
US10815215; US11130745

> <Authors>
Gradl, SN; Nguyen, D; Eis, K; Gunther, J; Stellfeld, T; Janzer, A; Christian, S; Muller, T; Sheikh, SE; Zhou, HJ; Zhao, C; Sykes, DB; Ferrara, SJ; Liu, K; Krober, M; Merz, C; Niehues, M; Schafer, M; Zimmermann, K; Nising, CF; Gradl, SN; Nguyen, D; Eis, K; Gunther, J; Stellfeld, T; Janzer, A; Christian, S; Muller, T; Sheikh, SE; Sykes, DB; Ferrara, SJ; Krober, M; Merz, C; Niehues, M; Schafer, M; Zimmermann, K; Nising, CF

> <Link to Ligand in BindingDB>
http://www.bindingdb.org/bind/chemsearch/marvin/MolStructure.jsp?monomerid=470554

> <Link to Ligand-Target Pair in BindingDB>
http://www.bindingdb.org/jsp/dbsearch/PrimarySearch_ki.jsp?energyterm=kJ/mole&tag=r21&monomerid=470554&enzyme=Dihydroorotate+dehydrogenase&column=ki&startPg=0&Increment=50&submit=Search

> <PubChem CID>
134470313

> <PubChem SID>
441609730

$$$$

  Mrv2115 07222212352D          

 30 33  0  0  0  0            999 V2000
   -3.8743    6.4895    0.0000 C   0  0  0  0  0  0  0  0  0  0  0  0
   -3.1599    6.9020    0.0000 C   0  0  0  0  0  0  0  0  0  0  0  0
   -2.4454    6.4895    0.0000 C   0  0  0  0  0  0  0  0  0  0  0  0
   -1.7309    6.9020    0.0000 C   0  0  0  0  0  0  0  0  0  0  0  0
   -1.7309    7.7270    0.0000 C   0  0  0  0  0  0  0  0  0  0  0  0
   -1.0164    8.1395    0.0000 N   0  0  0  0  0  0  0  0  0  0  0  0
   -0.3020    7.7270    0.0000 C   0  0  0  0  0  0  0  0  0  0  0  0
    0.4125    8.1395    0.0000 C   0  0  0  0  0  0  0  0  0  0  0  0
    1.1270    7.7270    0.0000 N   0  0  0  0  0  0  0  0  0  0  0  0
    1.1270    6.9020    0.0000 C   0  0  0  0  0  0  0  0  0  0  0  0
    1.8414    6.4895    0.0000 C   0  0  0  0  0  0  0  0  0  0  0  0
    2.5559    6.9020    0.0000 C   0  0  0  0  0  0  0  0  0  0  0  0
    3.2704    6.4895    0.0000 C   0  0  0  0  0  0  0  0  0  0  0  0
    3.2704    5.6645    0.0000 C   0  0  0  0  0  0  0  0  0  0  0  0
    2.5559    5.2520    0.0000 C   0  0  0  0  0  0  0  0  0  0  0  0
    2.5559    4.4270    0.0000 C   0  0  0  0  0  0  0  0  0  0  0  0
    1.8414    4.0145    0.0000 O   0  0  0  0  0  0  0  0  0  0  0  0
    3.2704    4.0145    0.0000 N   0  0  0  0  0  0  0  0  0  0  0  0
    3.2704    3.1895    0.0000 C   0  0  0  0  0  0  0  0  0  0  0  0
    3.6829    2.4750    0.0000 C   0  0  0  0  0  0  0  0  0  0  0  0
    2.8579    2.4750    0.0000 C   0  0  0  0  0  0  0  0  0  0  0  0
    1.8414    5.6645    0.0000 C   0  0  0  0  0  0  0  0  0  0  0  0
    0.4125    6.4895    0.0000 C   0  0  0  0  0  0  0  0  0  0  0  0
    0.4125    5.6645    0.0000 C   0  0  0  0  0  0  0  0  0  0  0  0
   -0.3020    6.9020    0.0000 C   0  0  0  0  0  0  0  0  0  0  0  0
   -2.4454    8.1395    0.0000 C   0  0  0  0  0  0  0  0  0  0  0  0
   -2.4454    8.9645    0.0000 C   0  0  0  0  0  0  0  0  0  0  0  0
   -3.1599    9.3770    0.0000 O   0  0  0  0  0  0  0  0  0  0  0  0
   -1.7309    9.3770    0.0000 O   0  0  0  0  0  0  0  0  0  0  0  0
   -3.1599    7.7270    0.0000 C   0  0  0  0  0  0  0  0  0  0  0  0
  1  2  1  0  0  0  0
  2  3  4  0  0  0  0
  3  4  4  0  0  0  0
  4  5  4  0  0  0  0
  5  6  1  0  0  0  0
  6  7  1  0  0  0  0
  7  8  4  0  0  0  0
  8  9  4  0  0  0  0
  9 10  4  0  0  0  0
 10 11  1  0  0  0  0
 11 12  4  0  0  0  0
 12 13  4  0  0  0  0
 13 14  4  0  0  0  0
 14 15  4  0  0  0  0
 15 16  1  0  0  0  0
 16 17  2  0  0  0  0
 16 18  1  0  0  0  0
 18 19  1  0  0  0  0
 19 20  1  0  0  0  0
 20 21  1  0  0  0  0
 19 21  1  0  0  0  0
 15 22  4  0  0  0  0
 11 22  4  0  0  0  0
 10 23  4  0  0  0  0
 23 24  1  0  0  0  0
 23 25  4  0  0  0  0
  7 25  4  0  0  0  0
  5 26  4  0  0  0  0
 26 27  1  0  0  0  0
 27 28  2  0  0  0  0
 27 29  1  0  0  0  0
 26 30  4  0  0  0  0
  2 30  4  0  0  0  0
M  END
> <IC50(uM)>
0.012

> <Outcome>
1.0

> <BindingDB ID>
220021

> <BindingDB MonomerID>
102491

> <BindingDB Ligand Name>
US8536165, 95

> <Curation/DataSource>
US Patent

> <Article DOI>
?

> <PMID>
?

> <Patent Number>
US8536165

> <Authors>
Castro Palomino Laria, JC; Terricabras Belart, E; Erra Sola, M; Navarro Romero, E; Fonquerna Pou, S; Cardus Figueras, A; Lozoya Toribio, ME

> <Link to Ligand in BindingDB>
http://www.bindingdb.org/bind/chemsearch/marvin/MolStructure.jsp?monomerid=102491

> <Link to Ligand-Target Pair in BindingDB>
http://www.bindingdb.org/jsp/dbsearch/PrimarySearch_ki.jsp?energyterm=kJ/mole&tag=r21&monomerid=102491&enzyme=Dihydroorotate+dehydrogenase&column=ki&startPg=0&Increment=50&submit=Search

> <PubChem CID>
46847426

> <PubChem SID>
172097782

$$$$

  Mrv2115 07222212352D          

 27 30  0  0  0  0            999 V2000
    1.4289   -2.4750    0.0000 O   0  0  0  0  0  0  0  0  0  0  0  0
    1.4289   -1.6500    0.0000 C   0  0  0  0  0  0  0  0  0  0  0  0
    0.7145   -1.2375    0.0000 C   0  0  0  0  0  0  0  0  0  0  0  0
    0.0000   -1.6500    0.0000 O   0  0  0  0  0  0  0  0  0  0  0  0
    0.7145   -0.4125    0.0000 C   0  0  0  0  0  0  0  0  0  0  0  0
    0.0000    0.0000    0.0000 N   0  0  0  0  0  0  0  0  0  0  0  0
   -0.7145   -0.4125    0.0000 C   0  0  0  0  0  0  0  0  0  0  0  0
   -1.4289    0.0000    0.0000 C   0  0  0  0  0  0  0  0  0  0  0  0
   -1.4289    0.8250    0.0000 N   0  0  0  0  0  0  0  0  0  0  0  0
   -2.1434    1.2375    0.0000 C   0  0  0  0  0  0  0  0  0  0  0  0
   -2.8579    0.8250    0.0000 C   0  0  0  0  0  0  0  0  0  0  0  0
   -3.5724    1.2375    0.0000 C   0  0  0  0  0  0  0  0  0  0  0  0
   -3.5724    2.0625    0.0000 C   0  0  0  0  0  0  0  0  0  0  0  0
   -2.8579    2.4750    0.0000 C   0  0  0  0  0  0  0  0  0  0  0  0
   -2.8579    3.3000    0.0000 Cl  0  0  0  0  0  0  0  0  0  0  0  0
   -2.1434    2.0625    0.0000 C   0  0  0  0  0  0  0  0  0  0  0  0
   -1.4289    2.4750    0.0000 Cl  0  0  0  0  0  0  0  0  0  0  0  0
   -0.7145    1.2375    0.0000 C   0  0  0  0  0  0  0  0  0  0  0  0
    0.0000    0.8250    0.0000 C   0  0  0  0  0  0  0  0  0  0  0  0
    1.4289    0.0000    0.0000 C   0  0  0  0  0  0  0  0  0  0  0  0
    1.4289    0.8250    0.0000 O   0  0  0  0  0  0  0  0  0  0  0  0
    2.1434   -0.4125    0.0000 C   0  0  0  0  0  0  0  0  0  0  0  0
    2.8579    0.0000    0.0000 C   0  0  0  0  0  0  0  0  0  0  0  0
    3.5724   -0.4125    0.0000 C   0  0  0  0  0  0  0  0  0  0  0  0
    3.5724   -1.2375    0.0000 C   0  0  0  0  0  0  0  0  0  0  0  0
    2.8579   -1.6500    0.0000 C   0  0  0  0  0  0  0  0  0  0  0  0
    2.1434   -1.2375    0.0000 C   0  0  0  0  0  0  0  0  0  0  0  0
  1  2  2  0  0  0  0
  2  3  1  0  0  0  0
  3  4  1  0  0  0  0
  3  5  2  0  0  0  0
  5  6  1  0  0  0  0
  6  7  1  0  0  0  0
  7  8  1  0  0  0  0
  8  9  1  0  0  0  0
  9 10  1  0  0  0  0
 10 11  4  0  0  0  0
 11 12  4  0  0  0  0
 12 13  4  0  0  0  0
 13 14  4  0  0  0  0
 14 15  1  0  0  0  0
 14 16  4  0  0  0  0
 10 16  4  0  0  0  0
 16 17  1  0  0  0  0
  9 18  1  0  0  0  0
 18 19  1  0  0  0  0
  6 19  1  0  0  0  0
  5 20  1  0  0  0  0
 20 21  2  0  0  0  0
 20 22  1  0  0  0  0
 22 23  4  0  0  0  0
 23 24  4  0  0  0  0
 24 25  4  0  0  0  0
 25 26  4  0  0  0  0
 26 27  4  0  0  0  0
 22 27  4  0  0  0  0
  2 27  1  0  0  0  0
M  END
> <IC50(uM)>
1.8

> <Outcome>
0.0

> <BindingDB ID>
51282829

> <BindingDB MonomerID>
50523215

> <BindingDB Ligand Name>
CHEMBL4586212

> <Curation/DataSource>
ChEMBL

> <Article DOI>
10.1016/j.ejmech.2019.02.018

> <PMID>
30776695

> <Patent Number>
?

> <Authors>
Calil, FA; David, JS; Chiappetta, ERC; Fumagalli, F; Mello, RB; Leite, FHA; Castilho, MS; Emery, FS; Nonato, MC

> <Link to Ligand in BindingDB>
http://www.bindingdb.org/bind/chemsearch/marvin/MolStructure.jsp?monomerid=50523215

> <Link to Ligand-Target Pair in BindingDB>
http://www.bindingdb.org/jsp/dbsearch/PrimarySearch_ki.jsp?energyterm=kJ/mole&tag=r21&monomerid=50523215&enzyme=Dihydroorotate+dehydrogenase&column=ki&startPg=0&Increment=50&submit=Search

> <PubChem CID>
155567039

> <PubChem SID>
440731797

$$$$

  Mrv2115 07222212352D          

 35 38  0  0  0  0            999 V2000
   -5.1659    1.4455    0.0000 C   0  0  0  0  0  0  0  0  0  0  0  0
   -5.5784    0.7310    0.0000 C   0  0  0  0  0  0  0  0  0  0  0  0
   -6.4034    0.7310    0.0000 C   0  0  0  0  0  0  0  0  0  0  0  0
   -6.8159    0.0165    0.0000 C   0  0  0  0  0  0  0  0  0  0  0  0
   -6.4034   -0.6979    0.0000 N   0  0  0  0  0  0  0  0  0  0  0  0
   -5.5784   -0.6979    0.0000 C   0  0  0  0  0  0  0  0  0  0  0  0
   -5.1659   -1.4124    0.0000 C   0  0  0  0  0  0  0  0  0  0  0  0
   -5.1659    0.0165    0.0000 C   0  0  0  0  0  0  0  0  0  0  0  0
   -4.3409    0.0165    0.0000 N   0  0  0  0  0  0  0  0  0  0  0  0
   -3.9284   -0.6979    0.0000 C   0  0  0  0  0  0  0  0  0  0  0  0
   -4.3409   -1.4124    0.0000 O   0  0  0  0  0  0  0  0  0  0  0  0
   -3.1034   -0.6979    0.0000 C   0  0  0  0  0  0  0  0  0  0  0  0
   -2.6909    0.0165    0.0000 C   0  0  0  0  0  0  0  0  0  0  0  0
   -1.8659    0.0165    0.0000 C   0  0  0  0  0  0  0  0  0  0  0  0
   -1.4534    0.7310    0.0000 F   0  0  0  0  0  0  0  0  0  0  0  0
   -1.4534   -0.6979    0.0000 C   0  0  0  0  0  0  0  0  0  0  0  0
   -0.6284   -0.6979    0.0000 N   0  0  0  0  0  0  0  0  0  0  0  0
   -0.1435   -1.3654    0.0000 N   0  0  0  0  0  0  0  0  0  0  0  0
    0.6411   -1.1104    0.0000 C   0  0  0  0  0  0  0  0  0  0  0  0
    0.6411   -0.2854    0.0000 N   0  0  0  0  0  0  0  0  0  0  0  0
   -0.1435   -0.0305    0.0000 C   0  0  0  0  0  0  0  0  0  0  0  0
   -0.3984    0.7541    0.0000 O   0  0  0  0  0  0  0  0  0  0  0  0
    1.3556    0.1271    0.0000 C   0  0  0  0  0  0  0  0  0  0  0  0
    2.0701   -0.2854    0.0000 C   0  0  0  0  0  0  0  0  0  0  0  0
    2.0701   -1.1104    0.0000 C   0  0  0  0  0  0  0  0  0  0  0  0
    1.3556   -1.5229    0.0000 C   0  0  0  0  0  0  0  0  0  0  0  0
   -1.8659   -1.4124    0.0000 C   0  0  0  0  0  0  0  0  0  0  0  0
   -2.6909   -1.4124    0.0000 C   0  0  0  0  0  0  0  0  0  0  0  0
   -3.1034   -2.1269    0.0000 O   0  0  0  0  0  0  0  0  0  0  0  0
   -2.6909   -2.8414    0.0000 C   0  0  0  0  0  0  0  0  0  0  0  0
   -1.8659   -2.8414    0.0000 C   0  0  0  0  0  0  0  0  0  0  0  0
   -3.1034   -3.5558    0.0000 C   0  0  0  0  0  0  0  0  0  0  0  0
   -3.8179   -3.1433    0.0000 F   0  0  0  0  0  0  0  0  0  0  0  0
   -2.3890   -3.9683    0.0000 F   0  0  0  0  0  0  0  0  0  0  0  0
   -3.5159   -4.2703    0.0000 F   0  0  0  0  0  0  0  0  0  0  0  0
  1  2  1  0  0  0  0
  2  3  4  0  0  0  0
  3  4  4  0  0  0  0
  4  5  4  0  0  0  0
  5  6  4  0  0  0  0
  6  7  1  0  0  0  0
  6  8  4  0  0  0  0
  2  8  4  0  0  0  0
  8  9  1  0  0  0  0
  9 10  1  0  0  0  0
 10 11  2  0  0  0  0
 10 12  1  0  0  0  0
 12 13  4  0  0  0  0
 13 14  4  0  0  0  0
 14 15  1  0  0  0  0
 14 16  4  0  0  0  0
 16 17  1  0  0  0  0
 17 18  4  0  0  0  0
 18 19  4  0  0  0  0
 19 20  4  0  0  0  0
 20 21  4  0  0  0  0
 17 21  4  0  0  0  0
 21 22  2  0  0  0  0
 20 23  1  0  0  0  0
 23 24  1  0  0  0  0
 24 25  1  0  0  0  0
 25 26  1  0  0  0  0
 19 26  1  0  0  0  0
 16 27  4  0  0  0  0
 27 28  4  0  0  0  0
 12 28  4  0  0  0  0
 28 29  1  0  0  0  0
 29 30  1  0  0  0  0
 30 31  1  0  0  0  0
 30 32  1  0  0  0  0
 32 33  1  0  0  0  0
 32 34  1  0  0  0  0
 32 35  1  0  0  0  0
M  END
> <IC50(uM)>
0.09

> <Outcome>
1.0

> <BindingDB ID>
1020447

> <BindingDB MonomerID>
490398

> <BindingDB Ligand Name>
N-(2,4-dimethylpyridin-3-yl)-5-fluoro-4-(3-oxo-5,6,7,8-tetrahydro[1,2,4]triazolo[4,3-a]pyridin-2(3H)-yl)-2-{[(2S)-1,1,1-trifluoropropan-2-yl]oxy}benzamide::US10968216, Example 66

> <Curation/DataSource>
US Patent

> <Article DOI>
?

> <PMID>
?

> <Patent Number>
US10968216

> <Authors>
Gradl, SN; Nguyen, D; Eis, K; Gunther, J; Stellfeld, T; Janzer, A; Christian, S; Mueller, T; Sheikh, SE; Zhou, HJ; Zhao, C; Sykes, DB; Ferrara, SJ; Liu, K; Herbert, SA; Merz, C; Niehues, M; Nising, CF; Schafer, M; Zimmermann, K; Knablein, J; Thede, K; Faupel, T

> <Link to Ligand in BindingDB>
http://www.bindingdb.org/bind/chemsearch/marvin/MolStructure.jsp?monomerid=490398

> <Link to Ligand-Target Pair in BindingDB>
http://www.bindingdb.org/jsp/dbsearch/PrimarySearch_ki.jsp?energyterm=kJ/mole&tag=r21&monomerid=490398&enzyme=Dihydroorotate+dehydrogenase&column=ki&startPg=0&Increment=50&submit=Search

> <PubChem CID>
134473907

> <PubChem SID>
447117125

$$$$

  Mrv2115 07222212352D          

 27 29  0  0  0  0            999 V2000
   -2.1434   -0.4125    0.0000 C   0  0  0  0  0  0  0  0  0  0  0  0
   -2.1434   -1.2375    0.0000 C   0  0  0  0  0  0  0  0  0  0  0  0
   -2.8579   -1.6500    0.0000 O   0  0  0  0  0  0  0  0  0  0  0  0
   -2.8579   -2.4750    0.0000 C   0  0  0  0  0  0  0  0  0  0  0  0
   -2.1434   -2.8875    0.0000 C   0  0  0  0  0  0  0  0  0  0  0  0
   -2.1434   -3.7125    0.0000 C   0  0  0  0  0  0  0  0  0  0  0  0
   -2.8579   -4.1250    0.0000 C   0  0  0  0  0  0  0  0  0  0  0  0
   -3.5724   -3.7125    0.0000 C   0  0  0  0  0  0  0  0  0  0  0  0
   -4.2868   -4.1250    0.0000 C   0  0  0  0  0  0  0  0  0  0  0  0
   -5.0013   -3.7125    0.0000 N   0  0  0  0  0  0  0  0  0  0  0  0
   -5.7158   -4.1250    0.0000 C   0  0  0  0  0  0  0  0  0  0  0  0
   -5.7158   -4.9500    0.0000 C   0  0  0  0  0  0  0  0  0  0  0  0
   -6.4302   -5.3625    0.0000 N   0  0  0  0  0  0  0  0  0  0  0  0
   -6.4302   -6.1875    0.0000 C   0  0  0  0  0  0  0  0  0  0  0  0
   -5.7158   -6.6000    0.0000 C   0  0  0  0  0  0  0  0  0  0  0  0
   -5.7158   -7.4250    0.0000 C   0  0  0  0  0  0  0  0  0  0  0  0
   -6.4302   -7.8375    0.0000 C   0  0  0  0  0  0  0  0  0  0  0  0
   -6.4302   -8.6625    0.0000 C   0  0  0  0  0  0  0  0  0  0  0  0
   -7.1447   -7.4250    0.0000 C   0  0  0  0  0  0  0  0  0  0  0  0
   -7.1447   -6.6000    0.0000 C   0  0  0  0  0  0  0  0  0  0  0  0
   -7.8592   -6.1875    0.0000 C   0  0  0  0  0  0  0  0  0  0  0  0
   -7.8592   -5.3625    0.0000 O   0  0  0  0  0  0  0  0  0  0  0  0
   -8.5737   -6.6000    0.0000 O   0  0  0  0  0  0  0  0  0  0  0  0
   -5.0013   -5.3625    0.0000 C   0  0  0  0  0  0  0  0  0  0  0  0
   -4.2868   -4.9500    0.0000 C   0  0  0  0  0  0  0  0  0  0  0  0
   -3.5724   -5.3625    0.0000 C   0  0  0  0  0  0  0  0  0  0  0  0
   -3.5724   -2.8875    0.0000 C   0  0  0  0  0  0  0  0  0  0  0  0
  1  2  1  0  0  0  0
  2  3  1  0  0  0  0
  3  4  1  0  0  0  0
  4  5  4  0  0  0  0
  5  6  4  0  0  0  0
  6  7  4  0  0  0  0
  7  8  4  0  0  0  0
  8  9  1  0  0  0  0
  9 10  4  0  0  0  0
 10 11  4  0  0  0  0
 11 12  4  0  0  0  0
 12 13  1  0  0  0  0
 13 14  1  0  0  0  0
 14 15  4  0  0  0  0
 15 16  4  0  0  0  0
 16 17  4  0  0  0  0
 17 18  1  0  0  0  0
 17 19  4  0  0  0  0
 19 20  4  0  0  0  0
 14 20  4  0  0  0  0
 20 21  1  0  0  0  0
 21 22  2  0  0  0  0
 21 23  1  0  0  0  0
 12 24  4  0  0  0  0
 24 25  4  0  0  0  0
  9 25  4  0  0  0  0
 25 26  1  0  0  0  0
  8 27  4  0  0  0  0
  4 27  4  0  0  0  0
M  END
> <IC50(uM)>
0.03

> <Outcome>
1.0

> <BindingDB ID>
219991

> <BindingDB MonomerID>
102461

> <BindingDB Ligand Name>
US8536165, 42

> <Curation/DataSource>
US Patent

> <Article DOI>
?

> <PMID>
?

> <Patent Number>
US8536165

> <Authors>
Castro Palomino Laria, JC; Terricabras Belart, E; Erra Sola, M; Navarro Romero, E; Fonquerna Pou, S; Cardus Figueras, A; Lozoya Toribio, ME

> <Link to Ligand in BindingDB>
http://www.bindingdb.org/bind/chemsearch/marvin/MolStructure.jsp?monomerid=102461

> <Link to Ligand-Target Pair in BindingDB>
http://www.bindingdb.org/jsp/dbsearch/PrimarySearch_ki.jsp?energyterm=kJ/mole&tag=r21&monomerid=102461&enzyme=Dihydroorotate+dehydrogenase&column=ki&startPg=0&Increment=50&submit=Search

> <PubChem CID>
46847601

> <PubChem SID>
172097752

$$$$

  Mrv2115 07222212352D          

 27 31  0  0  0  0            999 V2000
    0.1536    1.3672    0.0000 O   0  0  0  0  0  0  0  0  0  0  0  0
   -0.3984    0.7541    0.0000 C   0  0  0  0  0  0  0  0  0  0  0  0
   -1.2054    0.9256    0.0000 N   0  0  0  0  0  0  0  0  0  0  0  0
   -1.4604    1.7103    0.0000 C   0  0  0  0  0  0  0  0  0  0  0  0
   -2.2673    1.8818    0.0000 C   0  0  0  0  0  0  0  0  0  0  0  0
   -2.5223    2.6664    0.0000 C   0  0  0  0  0  0  0  0  0  0  0  0
   -1.9702    3.2795    0.0000 C   0  0  0  0  0  0  0  0  0  0  0  0
   -1.1633    3.1080    0.0000 C   0  0  0  0  0  0  0  0  0  0  0  0
   -0.9083    2.3234    0.0000 C   0  0  0  0  0  0  0  0  0  0  0  0
   -0.0833    2.3234    0.0000 C   0  0  0  0  0  0  0  0  0  0  0  0
    0.1716    3.1080    0.0000 N   0  0  0  0  0  0  0  0  0  0  0  0
   -0.4958    3.5929    0.0000 N   0  0  0  0  0  0  0  0  0  0  0  0
   -0.4958    4.4179    0.0000 C   0  0  0  0  0  0  0  0  0  0  0  0
   -1.2103    4.8304    0.0000 C   0  0  0  0  0  0  0  0  0  0  0  0
   -1.2103    5.6554    0.0000 C   0  0  0  0  0  0  0  0  0  0  0  0
   -0.4958    6.0679    0.0000 C   0  0  0  0  0  0  0  0  0  0  0  0
    0.2186    5.6554    0.0000 C   0  0  0  0  0  0  0  0  0  0  0  0
    0.2186    4.8304    0.0000 C   0  0  0  0  0  0  0  0  0  0  0  0
   -0.1435   -0.0305    0.0000 C   0  0  0  0  0  0  0  0  0  0  0  0
   -0.6284   -0.6979    0.0000 O   0  0  0  0  0  0  0  0  0  0  0  0
   -0.1435   -1.3654    0.0000 N   0  0  0  0  0  0  0  0  0  0  0  0
    0.6411   -1.1104    0.0000 C   0  0  0  0  0  0  0  0  0  0  0  0
    0.6411   -0.2854    0.0000 C   0  0  0  0  0  0  0  0  0  0  0  0
    1.3556    0.1271    0.0000 C   0  0  0  0  0  0  0  0  0  0  0  0
    2.0701   -0.2854    0.0000 C   0  0  0  0  0  0  0  0  0  0  0  0
    2.0701   -1.1104    0.0000 C   0  0  0  0  0  0  0  0  0  0  0  0
    1.3556   -1.5229    0.0000 C   0  0  0  0  0  0  0  0  0  0  0  0
  1  2  2  0  0  0  0
  2  3  1  0  0  0  0
  3  4  1  0  0  0  0
  4  5  1  0  0  0  0
  5  6  1  0  0  0  0
  6  7  1  0  0  0  0
  7  8  1  0  0  0  0
  8  9  4  0  0  0  0
  4  9  1  0  0  0  0
  9 10  4  0  0  0  0
 10 11  4  0  0  0  0
 11 12  4  0  0  0  0
  8 12  4  0  0  0  0
 12 13  1  0  0  0  0
 13 14  4  0  0  0  0
 14 15  4  0  0  0  0
 15 16  4  0  0  0  0
 16 17  4  0  0  0  0
 17 18  4  0  0  0  0
 13 18  4  0  0  0  0
  2 19  1  0  0  0  0
 19 20  4  0  0  0  0
 20 21  4  0  0  0  0
 21 22  4  0  0  0  0
 22 23  4  0  0  0  0
 19 23  4  0  0  0  0
 23 24  1  0  0  0  0
 24 25  1  0  0  0  0
 25 26  1  0  0  0  0
 26 27  1  0  0  0  0
 22 27  1  0  0  0  0
M  END
> <IC50(uM)>
0.10350000000000001

> <Outcome>
1.0

> <BindingDB ID>
51334963; 993095

> <BindingDB MonomerID>
477597

> <BindingDB Ligand Name>
N-(1-phenyl-4,5,6,7-tetrahydro-1H-indazol-4-yl)-4,5,6,7-tetrahydro-2,1-benzoxazole-3-carboxamide::US10889564, Example 27

> <Curation/DataSource>
ChEMBL; US Patent

> <Article DOI>
10.1021/acs.jmedchem.9b01658; ?

> <PMID>
32212728; ?

> <Patent Number>
?; US10889564

> <Authors>
Popova, G; Ladds, MJGW; Johansson, L; Saleh, A; Larsson, J; Sandberg, L; Sahlberg, SH; Qian, W; Gullberg, H; Garg, N; Gustavsson, AL; Haraldsson, M; Lane, D; Yngve, U; Lain, S; Lain, S; Drummond, C; Leeuwen, IV; Haraldsson, M; Johansson, L; Sandberg, L; Yngve, U

> <Link to Ligand in BindingDB>
http://www.bindingdb.org/bind/chemsearch/marvin/MolStructure.jsp?monomerid=477597

> <Link to Ligand-Target Pair in BindingDB>
http://www.bindingdb.org/jsp/dbsearch/PrimarySearch_ki.jsp?energyterm=kJ/mole&tag=r21&monomerid=477597&enzyme=Dihydroorotate+dehydrogenase&column=ki&startPg=0&Increment=50&submit=Search

> <PubChem CID>
129104756

> <PubChem SID>
442137214

$$$$

  Mrv2115 07222212352D          

 22 23  0  0  0  0            999 V2000
   -0.1067   -0.0616    0.0000 C   0  0  0  0  0  0  0  0  0  0  0  0
    0.6078   -0.4741    0.0000 C   0  0  0  0  0  0  0  0  0  0  0  0
    1.3222   -0.0616    0.0000 O   0  0  0  0  0  0  0  0  0  0  0  0
    2.0367   -0.4741    0.0000 C   0  0  0  0  0  0  0  0  0  0  0  0
    2.7512   -0.0616    0.0000 O   0  0  0  0  0  0  0  0  0  0  0  0
    2.0367   -1.2991    0.0000 C   0  0  0  0  0  0  0  0  0  0  0  0
    1.3693   -1.7840    0.0000 C   0  0  0  0  0  0  0  0  0  0  0  0
    0.5846   -1.5291    0.0000 O   0  0  0  0  0  0  0  0  0  0  0  0
    1.6242   -2.5687    0.0000 C   0  0  0  0  0  0  0  0  0  0  0  0
    2.4492   -2.5687    0.0000 S   0  0  0  0  0  0  0  0  0  0  0  0
    2.7041   -1.7840    0.0000 C   0  0  0  0  0  0  0  0  0  0  0  0
    3.4888   -1.5291    0.0000 N   0  0  0  0  0  0  0  0  0  0  0  0
    4.1019   -2.0811    0.0000 C   0  0  0  0  0  0  0  0  0  0  0  0
    4.8865   -1.8262    0.0000 C   0  0  0  0  0  0  0  0  0  0  0  0
    5.4996   -2.3782    0.0000 C   0  0  0  0  0  0  0  0  0  0  0  0
    5.3281   -3.1852    0.0000 C   0  0  0  0  0  0  0  0  0  0  0  0
    5.9411   -3.7372    0.0000 C   0  0  0  0  0  0  0  0  0  0  0  0
    6.5542   -4.2893    0.0000 C   0  0  0  0  0  0  0  0  0  0  0  0
    5.3891   -4.3503    0.0000 C   0  0  0  0  0  0  0  0  0  0  0  0
    6.4932   -3.1241    0.0000 C   0  0  0  0  0  0  0  0  0  0  0  0
    4.5434   -3.4401    0.0000 C   0  0  0  0  0  0  0  0  0  0  0  0
    3.9303   -2.8881    0.0000 C   0  0  0  0  0  0  0  0  0  0  0  0
  1  2  1  0  0  0  0
  2  3  1  0  0  0  0
  3  4  1  0  0  0  0
  4  5  2  0  0  0  0
  4  6  1  0  0  0  0
  6  7  4  0  0  0  0
  7  8  1  0  0  0  0
  7  9  4  0  0  0  0
  9 10  4  0  0  0  0
 10 11  4  0  0  0  0
  6 11  4  0  0  0  0
 11 12  1  0  0  0  0
 12 13  1  0  0  0  0
 13 14  4  0  0  0  0
 14 15  4  0  0  0  0
 15 16  4  0  0  0  0
 16 17  1  0  0  0  0
 17 18  1  0  0  0  0
 17 19  1  0  0  0  0
 17 20  1  0  0  0  0
 16 21  4  0  0  0  0
 21 22  4  0  0  0  0
 13 22  4  0  0  0  0
M  END
> <IC50(uM)>
50.0

> <Outcome>
0.0

> <BindingDB ID>
51079180

> <BindingDB MonomerID>
50441288

> <BindingDB Ligand Name>
CHEMBL2431505

> <Curation/DataSource>
ChEMBL

> <Article DOI>
10.1021/jm400938g

> <PMID>
24073986

> <Patent Number>
?

> <Authors>
Xu, M; Zhu, J; Diao, Y; Zhou, H; Ren, X; Sun, D; Huang, J; Han, D; Zhao, Z; Zhu, L; Xu, Y; Li, H

> <Link to Ligand in BindingDB>
http://www.bindingdb.org/bind/chemsearch/marvin/MolStructure.jsp?monomerid=50441288

> <Link to Ligand-Target Pair in BindingDB>
http://www.bindingdb.org/jsp/dbsearch/PrimarySearch_ki.jsp?energyterm=kJ/mole&tag=r21&monomerid=50441288&enzyme=Dihydroorotate+dehydrogenase&column=ki&startPg=0&Increment=50&submit=Search

> <PubChem CID>
91898849

> <PubChem SID>
175453605

$$$$

  Mrv2115 07222212352D          

 25 27  0  0  0  0            999 V2000
    0.7145   -2.8875    0.0000 C   0  0  0  0  0  0  0  0  0  0  0  0
    1.4289   -2.4750    0.0000 O   0  0  0  0  0  0  0  0  0  0  0  0
    1.4289   -1.6500    0.0000 C   0  0  0  0  0  0  0  0  0  0  0  0
    0.7145   -1.2375    0.0000 C   0  0  0  0  0  0  0  0  0  0  0  0
    0.7145   -0.4125    0.0000 C   0  0  0  0  0  0  0  0  0  0  0  0
    1.4289    0.0000    0.0000 C   0  0  0  0  0  0  0  0  0  0  0  0
    2.1434   -0.4125    0.0000 C   0  0  0  0  0  0  0  0  0  0  0  0
    2.8579    0.0000    0.0000 C   0  0  0  0  0  0  0  0  0  0  0  0
    3.5724   -0.4125    0.0000 C   0  0  0  0  0  0  0  0  0  0  0  0
    3.5724   -1.2375    0.0000 C   0  0  0  0  0  0  0  0  0  0  0  0
    4.2868   -1.6500    0.0000 C   0  0  0  0  0  0  0  0  0  0  0  0
    5.0013   -1.2375    0.0000 C   0  0  0  0  0  0  0  0  0  0  0  0
    5.7158   -1.6500    0.0000 C   0  0  0  0  0  0  0  0  0  0  0  0
    6.4302   -1.2375    0.0000 C   0  0  0  0  0  0  0  0  0  0  0  0
    6.4302   -0.4125    0.0000 C   0  0  0  0  0  0  0  0  0  0  0  0
    7.1447   -0.0000    0.0000 O   0  0  0  0  0  0  0  0  0  0  0  0
    5.7158   -0.0000    0.0000 O   0  0  0  0  0  0  0  0  0  0  0  0
    7.1447   -1.6500    0.0000 N   0  0  0  0  0  0  0  0  0  0  0  0
    7.1447   -2.4750    0.0000 C   0  0  0  0  0  0  0  0  0  0  0  0
    7.8592   -2.8875    0.0000 O   0  0  0  0  0  0  0  0  0  0  0  0
    6.4302   -2.8875    0.0000 N   0  0  0  0  0  0  0  0  0  0  0  0
    5.7158   -2.4750    0.0000 C   0  0  0  0  0  0  0  0  0  0  0  0
    5.0013   -2.8875    0.0000 O   0  0  0  0  0  0  0  0  0  0  0  0
    2.8579   -1.6500    0.0000 C   0  0  0  0  0  0  0  0  0  0  0  0
    2.1434   -1.2375    0.0000 C   0  0  0  0  0  0  0  0  0  0  0  0
  1  2  1  0  0  0  0
  2  3  1  0  0  0  0
  3  4  4  0  0  0  0
  4  5  4  0  0  0  0
  5  6  4  0  0  0  0
  6  7  4  0  0  0  0
  7  8  4  0  0  0  0
  8  9  4  0  0  0  0
  9 10  4  0  0  0  0
 10 11  1  0  0  0  0
 11 12  1  0  0  0  0
 12 13  1  0  0  0  0
 13 14  4  0  0  0  0
 14 15  1  0  0  0  0
 15 16  2  0  0  0  0
 15 17  1  0  0  0  0
 14 18  4  0  0  0  0
 18 19  4  0  0  0  0
 19 20  2  0  0  0  0
 19 21  4  0  0  0  0
 21 22  4  0  0  0  0
 13 22  4  0  0  0  0
 22 23  2  0  0  0  0
 10 24  4  0  0  0  0
 24 25  4  0  0  0  0
  3 25  4  0  0  0  0
  7 25  4  0  0  0  0
M  STY  2   1 DAT   2 DAT
M  SAL   1  1  18
M  SDT   1 MRV_IMPLICIT_H                                        
M  SDD   1     0.5304   -0.4125    DR    ALL  0       0  
M  SED   1 IMPL_H1
M  SAL   2  1  21
M  SDT   2 MRV_IMPLICIT_H                                        
M  SDD   2     0.6482   -0.4125    DR    ALL  0       0  
M  SED   2 IMPL_H1
M  END
> <IC50(uM)>
0.023

> <Outcome>
1.0

> <BindingDB ID>
50555374

> <BindingDB MonomerID>
50211705

> <BindingDB Ligand Name>
CHEMBL3964957

> <Curation/DataSource>
ChEMBL

> <Article DOI>
10.1016/j.bmc.2017.01.009

> <PMID>
28118956

> <Patent Number>
?

> <Authors>
Inaoka, DK; Iida, M; Hashimoto, S; Tabuchi, T; Kuranaga, T; Balogun, EO; Honma, T; Tanaka, A; Harada, S; Nara, T; Kita, K; Inoue, M

> <Link to Ligand in BindingDB>
http://www.bindingdb.org/bind/chemsearch/marvin/MolStructure.jsp?monomerid=50211705

> <Link to Ligand-Target Pair in BindingDB>
http://www.bindingdb.org/jsp/dbsearch/PrimarySearch_ki.jsp?energyterm=kJ/mole&tag=r21&monomerid=50211705&enzyme=Dihydroorotate+dehydrogenase&column=ki&startPg=0&Increment=50&submit=Search

> <PubChem CID>
134150360

> <PubChem SID>
375983048

$$$$

  Mrv2115 07222212352D          

 36 39  0  0  0  0            999 V2000
   -8.0534   -2.1269    0.0000 C   0  0  0  0  0  0  0  0  0  0  0  0
   -7.6409   -1.4124    0.0000 O   0  0  0  0  0  0  0  0  0  0  0  0
   -6.8159   -1.4124    0.0000 C   0  0  0  0  0  0  0  0  0  0  0  0
   -6.4034   -0.6979    0.0000 C   0  0  0  0  0  0  0  0  0  0  0  0
   -5.5784   -0.6979    0.0000 C   0  0  0  0  0  0  0  0  0  0  0  0
   -5.1659    0.0165    0.0000 C   0  0  0  0  0  0  0  0  0  0  0  0
   -5.1659   -1.4124    0.0000 C   0  0  0  0  0  0  0  0  0  0  0  0
   -4.3409   -1.4124    0.0000 N   0  0  0  0  0  0  0  0  0  0  0  0
   -3.9284   -0.6979    0.0000 C   0  0  0  0  0  0  0  0  0  0  0  0
   -4.3409    0.0165    0.0000 O   0  0  0  0  0  0  0  0  0  0  0  0
   -3.1034   -0.6979    0.0000 C   0  0  0  0  0  0  0  0  0  0  0  0
   -2.6909    0.0165    0.0000 C   0  0  0  0  0  0  0  0  0  0  0  0
   -1.8659    0.0165    0.0000 C   0  0  0  0  0  0  0  0  0  0  0  0
   -1.4534    0.7310    0.0000 F   0  0  0  0  0  0  0  0  0  0  0  0
   -1.4534   -0.6979    0.0000 C   0  0  0  0  0  0  0  0  0  0  0  0
   -0.6284   -0.6979    0.0000 N   0  0  0  0  0  0  0  0  0  0  0  0
   -0.1435   -1.3654    0.0000 N   0  0  0  0  0  0  0  0  0  0  0  0
    0.6411   -1.1104    0.0000 C   0  0  0  0  0  0  0  0  0  0  0  0
    0.6411   -0.2854    0.0000 N   0  0  0  0  0  0  0  0  0  0  0  0
   -0.1435   -0.0305    0.0000 C   0  0  0  0  0  0  0  0  0  0  0  0
   -0.3984    0.7541    0.0000 O   0  0  0  0  0  0  0  0  0  0  0  0
    1.3556    0.1271    0.0000 C   0  0  0  0  0  0  0  0  0  0  0  0
    2.0701   -0.2854    0.0000 C   0  0  0  0  0  0  0  0  0  0  0  0
    2.0701   -1.1104    0.0000 C   0  0  0  0  0  0  0  0  0  0  0  0
    1.3556   -1.5229    0.0000 C   0  0  0  0  0  0  0  0  0  0  0  0
   -1.8659   -1.4124    0.0000 C   0  0  0  0  0  0  0  0  0  0  0  0
   -2.6909   -1.4124    0.0000 C   0  0  0  0  0  0  0  0  0  0  0  0
   -3.1034   -2.1269    0.0000 O   0  0  0  0  0  0  0  0  0  0  0  0
   -2.6909   -2.8414    0.0000 C   0  0  0  0  0  0  0  0  0  0  0  0
   -1.8659   -2.8414    0.0000 C   0  0  0  0  0  0  0  0  0  0  0  0
   -3.1034   -3.5558    0.0000 C   0  0  0  0  0  0  0  0  0  0  0  0
   -2.6909   -4.2703    0.0000 N   0  0  0  0  0  0  0  0  0  0  0  0
   -1.8659   -4.2703    0.0000 C   0  0  0  0  0  0  0  0  0  0  0  0
   -3.1034   -4.9848    0.0000 C   0  0  0  0  0  0  0  0  0  0  0  0
   -5.5784   -2.1269    0.0000 C   0  0  0  0  0  0  0  0  0  0  0  0
   -6.4034   -2.1269    0.0000 N   0  0  0  0  0  0  0  0  0  0  0  0
  1  2  1  0  0  0  0
  2  3  1  0  0  0  0
  3  4  4  0  0  0  0
  4  5  4  0  0  0  0
  5  6  1  0  0  0  0
  5  7  4  0  0  0  0
  7  8  1  0  0  0  0
  8  9  1  0  0  0  0
  9 10  2  0  0  0  0
  9 11  1  0  0  0  0
 11 12  4  0  0  0  0
 12 13  4  0  0  0  0
 13 14  1  0  0  0  0
 13 15  4  0  0  0  0
 15 16  1  0  0  0  0
 16 17  4  0  0  0  0
 17 18  4  0  0  0  0
 18 19  4  0  0  0  0
 19 20  4  0  0  0  0
 16 20  4  0  0  0  0
 20 21  2  0  0  0  0
 19 22  1  0  0  0  0
 22 23  1  0  0  0  0
 23 24  1  0  0  0  0
 24 25  1  0  0  0  0
 18 25  1  0  0  0  0
 15 26  4  0  0  0  0
 26 27  4  0  0  0  0
 11 27  4  0  0  0  0
 27 28  1  0  0  0  0
 28 29  1  0  0  0  0
 29 30  1  0  0  0  0
 29 31  1  0  0  0  0
 31 32  1  0  0  0  0
 32 33  1  0  0  0  0
 32 34  1  0  0  0  0
  7 35  4  0  0  0  0
 35 36  4  0  0  0  0
  3 36  4  0  0  0  0
M  END
> <IC50(uM)>
0.15

> <Outcome>
1.0

> <BindingDB ID>
1020679

> <BindingDB MonomerID>
490605

> <BindingDB Ligand Name>
2-{[(2S)-1-(dimethylamino)propan-2-yl]oxy}-5-fluoro-N-(6-methoxy-4-methylpyridin-3-yl)-4-(3-oxo-5,6,7,8-tetrahydro[1,2,4]triazolo[4,3-a]pyridin-2(3H)-yl)benzamide::US10968216, Example 273

> <Curation/DataSource>
US Patent

> <Article DOI>
?

> <PMID>
?

> <Patent Number>
US10968216

> <Authors>
Gradl, SN; Nguyen, D; Eis, K; Gunther, J; Stellfeld, T; Janzer, A; Christian, S; Mueller, T; Sheikh, SE; Zhou, HJ; Zhao, C; Sykes, DB; Ferrara, SJ; Liu, K; Herbert, SA; Merz, C; Niehues, M; Nising, CF; Schafer, M; Zimmermann, K; Knablein, J; Thede, K; Faupel, T

> <Link to Ligand in BindingDB>
http://www.bindingdb.org/bind/chemsearch/marvin/MolStructure.jsp?monomerid=490605

> <Link to Ligand-Target Pair in BindingDB>
http://www.bindingdb.org/jsp/dbsearch/PrimarySearch_ki.jsp?energyterm=kJ/mole&tag=r21&monomerid=490605&enzyme=Dihydroorotate+dehydrogenase&column=ki&startPg=0&Increment=50&submit=Search

> <PubChem CID>
134474463

> <PubChem SID>
447117331

$$$$

  Mrv2115 07222212352D          

 35 37  0  0  0  0            999 V2000
   -1.4289    8.0036    0.0000 C   0  0  0  0  0  0  0  0  0  0  0  0
   -0.7145    8.4161    0.0000 C   0  0  0  0  0  0  0  0  0  0  0  0
   -0.7145    9.2411    0.0000 C   0  0  0  0  0  0  0  0  0  0  0  0
   -0.0000    9.6536    0.0000 C   0  0  0  0  0  0  0  0  0  0  0  0
    0.7145    9.2411    0.0000 C   0  0  0  0  0  0  0  0  0  0  0  0
    0.7145    8.4161    0.0000 C   0  0  0  0  0  0  0  0  0  0  0  0
    1.4289    8.0036    0.0000 F   0  0  0  0  0  0  0  0  0  0  0  0
   -0.0000    8.0036    0.0000 C   0  0  0  0  0  0  0  0  0  0  0  0
   -0.0000    7.1786    0.0000 N   0  0  0  0  0  0  0  0  0  0  0  0
    0.7145    6.7661    0.0000 C   0  0  0  0  0  0  0  0  0  0  0  0
    1.4289    7.1786    0.0000 O   0  0  0  0  0  0  0  0  0  0  0  0
    0.7145    5.9411    0.0000 C   0  0  0  0  0  0  0  0  0  0  0  0
    1.4289    5.5286    0.0000 C   0  0  0  0  0  0  0  0  0  0  0  0
    1.4289    4.7036    0.0000 C   0  0  0  0  0  0  0  0  0  0  0  0
    2.1434    4.2911    0.0000 F   0  0  0  0  0  0  0  0  0  0  0  0
    0.7145    4.2911    0.0000 C   0  0  0  0  0  0  0  0  0  0  0  0
    0.7145    3.4661    0.0000 N   0  0  0  0  0  0  0  0  0  0  0  0
    0.0470    2.9812    0.0000 N   0  0  0  0  0  0  0  0  0  0  0  0
    0.3020    2.1965    0.0000 C   0  0  0  0  0  0  0  0  0  0  0  0
   -0.1830    1.5291    0.0000 C   0  0  0  0  0  0  0  0  0  0  0  0
    1.1270    2.1965    0.0000 N   0  0  0  0  0  0  0  0  0  0  0  0
    1.6119    1.5291    0.0000 C   0  0  0  0  0  0  0  0  0  0  0  0
    2.4324    1.6153    0.0000 C   0  0  0  0  0  0  0  0  0  0  0  0
    1.2763    0.7754    0.0000 C   0  0  0  0  0  0  0  0  0  0  0  0
    1.3819    2.9812    0.0000 C   0  0  0  0  0  0  0  0  0  0  0  0
    2.1665    3.2361    0.0000 O   0  0  0  0  0  0  0  0  0  0  0  0
    0.0000    4.7036    0.0000 C   0  0  0  0  0  0  0  0  0  0  0  0
   -0.0000    5.5286    0.0000 C   0  0  0  0  0  0  0  0  0  0  0  0
   -0.7145    5.9411    0.0000 O   0  0  0  0  0  0  0  0  0  0  0  0
   -1.4289    5.5286    0.0000 C   0  0  0  0  0  0  0  0  0  0  0  0
   -1.4289    4.7036    0.0000 C   0  0  0  0  0  0  0  0  0  0  0  0
   -2.1434    5.9411    0.0000 C   0  0  0  0  0  0  0  0  0  0  0  0
   -1.7309    6.6555    0.0000 F   0  0  0  0  0  0  0  0  0  0  0  0
   -2.5559    5.2266    0.0000 F   0  0  0  0  0  0  0  0  0  0  0  0
   -2.8579    6.3536    0.0000 F   0  0  0  0  0  0  0  0  0  0  0  0
  1  2  1  0  0  0  0
  2  3  4  0  0  0  0
  3  4  4  0  0  0  0
  4  5  4  0  0  0  0
  5  6  4  0  0  0  0
  6  7  1  0  0  0  0
  6  8  4  0  0  0  0
  2  8  4  0  0  0  0
  8  9  1  0  0  0  0
  9 10  1  0  0  0  0
 10 11  2  0  0  0  0
 10 12  1  0  0  0  0
 12 13  4  0  0  0  0
 13 14  4  0  0  0  0
 14 15  1  0  0  0  0
 14 16  4  0  0  0  0
 16 17  1  0  0  0  0
 17 18  4  0  0  0  0
 18 19  4  0  0  0  0
 19 20  1  0  0  0  0
 19 21  4  0  0  0  0
 21 22  1  0  0  0  0
 22 23  1  0  0  0  0
 22 24  1  0  0  0  0
 21 25  4  0  0  0  0
 17 25  4  0  0  0  0
 25 26  2  0  0  0  0
 16 27  4  0  0  0  0
 27 28  4  0  0  0  0
 12 28  4  0  0  0  0
 28 29  1  0  0  0  0
 29 30  1  0  0  0  0
 30 31  1  0  0  0  0
 30 32  1  0  0  0  0
 32 33  1  0  0  0  0
 32 34  1  0  0  0  0
 32 35  1  0  0  0  0
M  END
> <IC50(uM)>
0.0195

> <Outcome>
1.0

> <BindingDB ID>
1098594; 972440; 1098593; 972439

> <BindingDB MonomerID>
470343

> <BindingDB Ligand Name>
5-fluoro-N-(2-fluoro-6-methylphenyl)-4-[3-methyl-5-oxo-4-(propan-2-yl)-4,5-dihydro-1H-1,2,4-triazol-1-yl]-2-{[(2S)-1,1,1-trifluoropropan-2-yl]oxy}benzamide::US10815215, Example 5::US11130745, Example 5; 5-fluoro-N-(2-fluoro-6-methylphenyl)-4-[3-methyl-5-oxo-4-(propan-2-yl)-4,5-dihydro-1H-1,2,4-triazol-1-yl]-2-{[(2S)-1,1,1-trifluoropropan-2-yl]oxy}benzamide::US10815215, Example 5

> <Curation/DataSource>
US Patent

> <Article DOI>
?

> <PMID>
?

> <Patent Number>
US11130745; US10815215

> <Authors>
Gradl, SN; Nguyen, D; Eis, K; Gunther, J; Stellfeld, T; Janzer, A; Christian, S; Muller, T; Sheikh, SE; Sykes, DB; Ferrara, SJ; Krober, M; Merz, C; Niehues, M; Schafer, M; Zimmermann, K; Nising, CF; Gradl, SN; Nguyen, D; Eis, K; Gunther, J; Stellfeld, T; Janzer, A; Christian, S; Muller, T; Sheikh, SE; Zhou, HJ; Zhao, C; Sykes, DB; Ferrara, SJ; Liu, K; Krober, M; Merz, C; Niehues, M; Schafer, M; Zimmermann, K; Nising, CF

> <Link to Ligand in BindingDB>
http://www.bindingdb.org/bind/chemsearch/marvin/MolStructure.jsp?monomerid=470343

> <Link to Ligand-Target Pair in BindingDB>
http://www.bindingdb.org/jsp/dbsearch/PrimarySearch_ki.jsp?energyterm=kJ/mole&tag=r21&monomerid=470343&enzyme=Dihydroorotate+dehydrogenase&column=ki&startPg=0&Increment=50&submit=Search

> <PubChem CID>
134470352

> <PubChem SID>
441609520

$$$$

  Mrv2115 07222212352D          

 27 29  0  0  0  0            999 V2000
   10.7171    1.2375    0.0000 O   0  0  0  0  0  0  0  0  0  0  0  0
   10.7171    0.4125    0.0000 C   0  0  0  0  0  0  0  0  0  0  0  0
   10.0026    0.0000    0.0000 C   0  0  0  0  0  0  0  0  0  0  0  0
    9.2881    0.4125    0.0000 C   0  0  0  0  0  0  0  0  0  0  0  0
    8.5737    0.0000    0.0000 C   0  0  0  0  0  0  0  0  0  0  0  0
    7.8592    0.4125    0.0000 N   0  0  0  0  0  0  0  0  0  0  0  0
    7.1447    0.0000    0.0000 C   0  0  0  0  0  0  0  0  0  0  0  0
    7.1447   -0.8250    0.0000 O   0  0  0  0  0  0  0  0  0  0  0  0
    6.4302    0.4125    0.0000 C   0  0  0  0  0  0  0  0  0  0  0  0
    5.7158    0.0000    0.0000 C   0  0  0  0  0  0  0  0  0  0  0  0
    5.0013    0.4125    0.0000 C   0  0  0  0  0  0  0  0  0  0  0  0
    5.0013    1.2375    0.0000 C   0  0  0  0  0  0  0  0  0  0  0  0
    4.2868    1.6500    0.0000 Cl  0  0  0  0  0  0  0  0  0  0  0  0
    5.7158    1.6500    0.0000 C   0  0  0  0  0  0  0  0  0  0  0  0
    5.7158    2.4750    0.0000 Cl  0  0  0  0  0  0  0  0  0  0  0  0
    6.4302    1.2375    0.0000 C   0  0  0  0  0  0  0  0  0  0  0  0
   11.4315    0.0000    0.0000 N   0  0  0  0  0  0  0  0  0  0  0  0
   12.1460    0.4125    0.0000 C   0  0  0  0  0  0  0  0  0  0  0  0
   12.1460    1.2375    0.0000 C   0  0  0  0  0  0  0  0  0  0  0  0
   12.8605    1.6500    0.0000 C   0  0  0  0  0  0  0  0  0  0  0  0
   13.5749    1.2375    0.0000 C   0  0  0  0  0  0  0  0  0  0  0  0
   13.5749    0.4125    0.0000 C   0  0  0  0  0  0  0  0  0  0  0  0
   14.2894    0.0000    0.0000 C   0  0  0  0  0  0  0  0  0  0  0  0
   14.2894   -0.8250    0.0000 C   0  0  0  0  0  0  0  0  0  0  0  0
   13.5749   -1.2375    0.0000 C   0  0  0  0  0  0  0  0  0  0  0  0
   12.8605   -0.8250    0.0000 C   0  0  0  0  0  0  0  0  0  0  0  0
   12.8605    0.0000    0.0000 C   0  0  0  0  0  0  0  0  0  0  0  0
  1  2  2  0  0  0  0
  2  3  1  0  0  0  0
  3  4  1  0  0  0  0
  4  5  1  0  0  0  0
  5  6  1  0  0  0  0
  6  7  1  0  0  0  0
  7  8  2  0  0  0  0
  7  9  1  0  0  0  0
  9 10  4  0  0  0  0
 10 11  4  0  0  0  0
 11 12  4  0  0  0  0
 12 13  1  0  0  0  0
 12 14  4  0  0  0  0
 14 15  1  0  0  0  0
 14 16  4  0  0  0  0
  9 16  4  0  0  0  0
  2 17  1  0  0  0  0
 17 18  1  0  0  0  0
 18 19  1  0  0  0  0
 19 20  1  0  0  0  0
 20 21  1  0  0  0  0
 21 22  1  0  0  0  0
 22 23  4  0  0  0  0
 23 24  4  0  0  0  0
 24 25  4  0  0  0  0
 25 26  4  0  0  0  0
 26 27  4  0  0  0  0
 22 27  4  0  0  0  0
 18 27  1  0  0  0  0
M  END
> <IC50(uM)>
20.0

> <Outcome>
0.0

> <BindingDB ID>
50527795

> <BindingDB MonomerID>
50201638

> <BindingDB Ligand Name>
CHEMBL3187511

> <Curation/DataSource>
ChEMBL

> <Article DOI>
10.1021/acsmedchemlett.6b00316

> <PMID>
27994748

> <Patent Number>
?

> <Authors>
Lewis, TA; Sykes, DB; Law, JM; Mu??oz, B; Rustiguel, JK; Nonato, MC; Scadden, DT; Schreiber, SL

> <Link to Ligand in BindingDB>
http://www.bindingdb.org/bind/chemsearch/marvin/MolStructure.jsp?monomerid=50201638

> <Link to Ligand-Target Pair in BindingDB>
http://www.bindingdb.org/jsp/dbsearch/PrimarySearch_ki.jsp?energyterm=kJ/mole&tag=r21&monomerid=50201638&enzyme=Dihydroorotate+dehydrogenase&column=ki&startPg=0&Increment=50&submit=Search

> <PubChem CID>
71768305

> <PubChem SID>
375979426

$$$$

  Mrv2115 07222212352D          

 27 28  0  0  0  0            999 V2000
    1.4289   -6.6000    0.0000 C   0  0  0  0  0  0  0  0  0  0  0  0
    2.1434   -6.1875    0.0000 C   0  0  0  0  0  0  0  0  0  0  0  0
    2.8579   -6.6000    0.0000 C   0  0  0  0  0  0  0  0  0  0  0  0
    2.8579   -7.4250    0.0000 O   0  0  0  0  0  0  0  0  0  0  0  0
    3.5724   -6.1875    0.0000 C   0  0  0  0  0  0  0  0  0  0  0  0
    3.5724   -5.3625    0.0000 C   0  0  0  0  0  0  0  0  0  0  0  0
    3.5724   -4.5375    0.0000 N   0  0  0  0  0  0  0  0  0  0  0  0
    4.2868   -6.6000    0.0000 C   0  0  0  0  0  0  0  0  0  0  0  0
    4.2868   -7.4250    0.0000 O   0  0  0  0  0  0  0  0  0  0  0  0
    5.0013   -6.1875    0.0000 N   0  0  0  0  0  0  0  0  0  0  0  0
    5.7158   -6.6000    0.0000 C   0  0  0  0  0  0  0  0  0  0  0  0
    5.7158   -7.4250    0.0000 C   0  0  0  0  0  0  0  0  0  0  0  0
    6.4302   -7.8375    0.0000 C   0  0  0  0  0  0  0  0  0  0  0  0
    7.1447   -7.4250    0.0000 C   0  0  0  0  0  0  0  0  0  0  0  0
    7.8592   -7.8375    0.0000 C   0  0  0  0  0  0  0  0  0  0  0  0
    8.5737   -7.4250    0.0000 C   0  0  0  0  0  0  0  0  0  0  0  0
    9.2881   -7.8375    0.0000 C   0  0  0  0  0  0  0  0  0  0  0  0
    9.2881   -8.6625    0.0000 C   0  0  0  0  0  0  0  0  0  0  0  0
    8.5737   -9.0750    0.0000 C   0  0  0  0  0  0  0  0  0  0  0  0
    7.8592   -8.6625    0.0000 C   0  0  0  0  0  0  0  0  0  0  0  0
    7.1447   -9.0750    0.0000 Cl  0  0  0  0  0  0  0  0  0  0  0  0
    7.1447   -6.6000    0.0000 C   0  0  0  0  0  0  0  0  0  0  0  0
    7.8592   -6.1875    0.0000 C   0  0  0  0  0  0  0  0  0  0  0  0
    7.8592   -5.3625    0.0000 O   0  0  0  0  0  0  0  0  0  0  0  0
    8.5737   -6.6000    0.0000 O   0  0  0  0  0  0  0  0  0  0  0  0
    9.2881   -6.1875    0.0000 C   0  0  0  0  0  0  0  0  0  0  0  0
    6.4302   -6.1875    0.0000 C   0  0  0  0  0  0  0  0  0  0  0  0
  1  2  1  0  0  0  0
  2  3  1  0  0  0  0
  3  4  2  0  0  0  0
  3  5  1  0  0  0  0
  5  6  1  0  0  0  0
  6  7  3  0  0  0  0
  5  8  1  0  0  0  0
  8  9  2  0  0  0  0
  8 10  1  0  0  0  0
 10 11  1  0  0  0  0
 11 12  4  0  0  0  0
 12 13  4  0  0  0  0
 13 14  4  0  0  0  0
 14 15  1  0  0  0  0
 15 16  4  0  0  0  0
 16 17  4  0  0  0  0
 17 18  4  0  0  0  0
 18 19  4  0  0  0  0
 19 20  4  0  0  0  0
 15 20  4  0  0  0  0
 20 21  1  0  0  0  0
 14 22  4  0  0  0  0
 22 23  1  0  0  0  0
 23 24  2  0  0  0  0
 23 25  1  0  0  0  0
 25 26  1  0  0  0  0
 22 27  4  0  0  0  0
 11 27  4  0  0  0  0
M  END
> <IC50(uM)>
0.052

> <Outcome>
1.0

> <BindingDB ID>
50707371

> <BindingDB MonomerID>
50359692

> <BindingDB Ligand Name>
CHEMBL1929436

> <Curation/DataSource>
ChEMBL

> <Article DOI>
10.1016/j.bmcl.2011.10.052

> <PMID>
22078215

> <Patent Number>
?

> <Authors>
Erra, M; Moreno, I; Sanahuja, J; Andres, M; Reinoso, RF; Lozoya, E; Pizcueta, P; Godessart, N; Castro-Palomino, JC

> <Link to Ligand in BindingDB>
http://www.bindingdb.org/bind/chemsearch/marvin/MolStructure.jsp?monomerid=50359692

> <Link to Ligand-Target Pair in BindingDB>
http://www.bindingdb.org/jsp/dbsearch/PrimarySearch_ki.jsp?energyterm=kJ/mole&tag=r21&monomerid=50359692&enzyme=Dihydroorotate+dehydrogenase&column=ki&startPg=0&Increment=50&submit=Search

> <PubChem CID>
91930440

> <PubChem SID>
136963716

$$$$

  Mrv2115 07222212352D          

 30 33  0  0  0  0            999 V2000
    4.0668    2.3479    0.0000 C   0  0  0  0  0  0  0  0  0  0  0  0
    3.3523    1.9354    0.0000 C   0  0  0  0  0  0  0  0  0  0  0  0
    3.3523    1.1104    0.0000 C   0  0  0  0  0  0  0  0  0  0  0  0
    2.6378    0.6979    0.0000 C   0  0  0  0  0  0  0  0  0  0  0  0
    2.6378   -0.1271    0.0000 C   0  0  0  0  0  0  0  0  0  0  0  0
    1.9233   -0.5396    0.0000 O   0  0  0  0  0  0  0  0  0  0  0  0
    3.3523   -0.5396    0.0000 O   0  0  0  0  0  0  0  0  0  0  0  0
    1.9233    1.1104    0.0000 C   0  0  0  0  0  0  0  0  0  0  0  0
    1.9233    1.9354    0.0000 C   0  0  0  0  0  0  0  0  0  0  0  0
    2.6378    2.3479    0.0000 C   0  0  0  0  0  0  0  0  0  0  0  0
    1.1387    2.1904    0.0000 N   0  0  0  0  0  0  0  0  0  0  0  0
    0.6538    1.5229    0.0000 C   0  0  0  0  0  0  0  0  0  0  0  0
   -0.1712    1.5229    0.0000 C   0  0  0  0  0  0  0  0  0  0  0  0
   -0.5837    0.8085    0.0000 C   0  0  0  0  0  0  0  0  0  0  0  0
   -0.1712    0.0940    0.0000 F   0  0  0  0  0  0  0  0  0  0  0  0
   -1.4087    0.8085    0.0000 C   0  0  0  0  0  0  0  0  0  0  0  0
   -1.8212    0.0940    0.0000 F   0  0  0  0  0  0  0  0  0  0  0  0
   -1.8212    1.5229    0.0000 C   0  0  0  0  0  0  0  0  0  0  0  0
   -2.6462    1.5229    0.0000 C   0  0  0  0  0  0  0  0  0  0  0  0
   -3.0587    0.8085    0.0000 C   0  0  0  0  0  0  0  0  0  0  0  0
   -3.8837    0.8085    0.0000 C   0  0  0  0  0  0  0  0  0  0  0  0
   -4.2962    1.5229    0.0000 C   0  0  0  0  0  0  0  0  0  0  0  0
   -3.8837    2.2374    0.0000 C   0  0  0  0  0  0  0  0  0  0  0  0
   -3.0587    2.2374    0.0000 C   0  0  0  0  0  0  0  0  0  0  0  0
   -1.4087    2.2374    0.0000 C   0  0  0  0  0  0  0  0  0  0  0  0
   -1.8212    2.9519    0.0000 F   0  0  0  0  0  0  0  0  0  0  0  0
   -0.5837    2.2374    0.0000 C   0  0  0  0  0  0  0  0  0  0  0  0
   -0.1712    2.9519    0.0000 F   0  0  0  0  0  0  0  0  0  0  0  0
    1.1387    0.8555    0.0000 N   0  0  0  0  0  0  0  0  0  0  0  0
    0.8838    0.0709    0.0000 C   0  0  0  0  0  0  0  0  0  0  0  0
  1  2  1  0  0  0  0
  2  3  4  0  0  0  0
  3  4  4  0  0  0  0
  4  5  1  0  0  0  0
  5  6  2  0  0  0  0
  5  7  1  0  0  0  0
  4  8  4  0  0  0  0
  8  9  4  0  0  0  0
  9 10  4  0  0  0  0
  2 10  4  0  0  0  0
  9 11  4  0  0  0  0
 11 12  4  0  0  0  0
 12 13  1  0  0  0  0
 13 14  4  0  0  0  0
 14 15  1  0  0  0  0
 14 16  4  0  0  0  0
 16 17  1  0  0  0  0
 16 18  4  0  0  0  0
 18 19  1  0  0  0  0
 19 20  4  0  0  0  0
 20 21  4  0  0  0  0
 21 22  4  0  0  0  0
 22 23  4  0  0  0  0
 23 24  4  0  0  0  0
 19 24  4  0  0  0  0
 18 25  4  0  0  0  0
 25 26  1  0  0  0  0
 25 27  4  0  0  0  0
 13 27  4  0  0  0  0
 27 28  1  0  0  0  0
 12 29  4  0  0  0  0
  8 29  4  0  0  0  0
 29 30  1  0  0  0  0
M  END
> <IC50(uM)>
0.003

> <Outcome>
1.0

> <BindingDB ID>
297825

> <BindingDB MonomerID>
155481

> <BindingDB Ligand Name>
US9006454, I123

> <Curation/DataSource>
US Patent

> <Article DOI>
?

> <PMID>
?

> <Patent Number>
US9006454

> <Authors>
Thunuguntla, SS; Subramanya, H; Kunnam, SR; Sanivaru Vijay, SR; Bingi, C; Kusanur, R; Schwarz, M; Arlt, M

> <Link to Ligand in BindingDB>
http://www.bindingdb.org/bind/chemsearch/marvin/MolStructure.jsp?monomerid=155481

> <Link to Ligand-Target Pair in BindingDB>
http://www.bindingdb.org/jsp/dbsearch/PrimarySearch_ki.jsp?energyterm=kJ/mole&tag=r21&monomerid=155481&enzyme=Dihydroorotate+dehydrogenase&column=ki&startPg=0&Increment=50&submit=Search

> <PubChem CID>
58073832

> <PubChem SID>
253658418

$$$$

  Mrv2115 07222212352D          

 35 37  0  0  0  0            999 V2000
    2.1434   -3.7125    0.0000 C   0  0  0  0  0  0  0  0  0  0  0  0
    2.8579   -4.1250    0.0000 C   0  0  0  0  0  0  0  0  0  0  0  0
    3.5724   -3.7125    0.0000 C   0  0  0  0  0  0  0  0  0  0  0  0
    4.2868   -4.1250    0.0000 C   0  0  0  0  0  0  0  0  0  0  0  0
    4.2868   -4.9500    0.0000 C   0  0  0  0  0  0  0  0  0  0  0  0
    5.0013   -3.7125    0.0000 O   0  0  0  0  0  0  0  0  0  0  0  0
    5.0013   -2.8875    0.0000 C   0  0  0  0  0  0  0  0  0  0  0  0
    4.2868   -2.4750    0.0000 C   0  0  0  0  0  0  0  0  0  0  0  0
    4.2868   -1.6500    0.0000 C   0  0  0  0  0  0  0  0  0  0  0  0
    3.5724   -1.2375    0.0000 N   0  0  0  0  0  0  0  0  0  0  0  0
    2.8187   -1.5731    0.0000 N   0  0  0  0  0  0  0  0  0  0  0  0
    2.2666   -0.9600    0.0000 C   0  0  0  0  0  0  0  0  0  0  0  0
    1.4462   -1.0462    0.0000 C   0  0  0  0  0  0  0  0  0  0  0  0
    1.5324   -1.8667    0.0000 C   0  0  0  0  0  0  0  0  0  0  0  0
    1.3599   -0.2257    0.0000 C   0  0  0  0  0  0  0  0  0  0  0  0
    0.6257   -1.1324    0.0000 O   0  0  0  0  0  0  0  0  0  0  0  0
    2.6791   -0.2455    0.0000 N   0  0  0  0  0  0  0  0  0  0  0  0
    2.3436    0.5082    0.0000 C   0  0  0  0  0  0  0  0  0  0  0  0
    3.4861   -0.4170    0.0000 C   0  0  0  0  0  0  0  0  0  0  0  0
    4.0992    0.1350    0.0000 O   0  0  0  0  0  0  0  0  0  0  0  0
    5.0013   -1.2375    0.0000 C   0  0  0  0  0  0  0  0  0  0  0  0
    5.0013   -0.4125    0.0000 F   0  0  0  0  0  0  0  0  0  0  0  0
    5.7158   -1.6500    0.0000 C   0  0  0  0  0  0  0  0  0  0  0  0
    5.7158   -2.4750    0.0000 C   0  0  0  0  0  0  0  0  0  0  0  0
    6.4302   -2.8875    0.0000 C   0  0  0  0  0  0  0  0  0  0  0  0
    6.4302   -3.7125    0.0000 O   0  0  0  0  0  0  0  0  0  0  0  0
    7.1447   -2.4750    0.0000 N   0  0  0  0  0  0  0  0  0  0  0  0
    7.8592   -2.8875    0.0000 C   0  0  0  0  0  0  0  0  0  0  0  0
    8.5737   -2.4750    0.0000 C   0  0  0  0  0  0  0  0  0  0  0  0
    8.5737   -1.6500    0.0000 F   0  0  0  0  0  0  0  0  0  0  0  0
    9.2881   -2.8875    0.0000 C   0  0  0  0  0  0  0  0  0  0  0  0
    9.2881   -3.7125    0.0000 C   0  0  0  0  0  0  0  0  0  0  0  0
    8.5737   -4.1250    0.0000 C   0  0  0  0  0  0  0  0  0  0  0  0
    7.8592   -3.7125    0.0000 C   0  0  0  0  0  0  0  0  0  0  0  0
    7.1447   -4.1250    0.0000 Cl  0  0  0  0  0  0  0  0  0  0  0  0
  1  2  1  0  0  0  0
  2  3  1  0  0  0  0
  3  4  1  0  0  0  0
  4  5  1  0  0  0  0
  4  6  1  0  0  0  0
  6  7  1  0  0  0  0
  7  8  4  0  0  0  0
  8  9  4  0  0  0  0
  9 10  1  0  0  0  0
 10 11  4  0  0  0  0
 11 12  4  0  0  0  0
 12 13  1  0  0  0  0
 13 14  1  0  0  0  0
 13 15  1  0  0  0  0
 13 16  1  0  0  0  0
 12 17  4  0  0  0  0
 17 18  1  0  0  0  0
 17 19  4  0  0  0  0
 10 19  4  0  0  0  0
 19 20  2  0  0  0  0
  9 21  4  0  0  0  0
 21 22  1  0  0  0  0
 21 23  4  0  0  0  0
 23 24  4  0  0  0  0
  7 24  4  0  0  0  0
 24 25  1  0  0  0  0
 25 26  2  0  0  0  0
 25 27  1  0  0  0  0
 27 28  1  0  0  0  0
 28 29  4  0  0  0  0
 29 30  1  0  0  0  0
 29 31  4  0  0  0  0
 31 32  4  0  0  0  0
 32 33  4  0  0  0  0
 33 34  4  0  0  0  0
 28 34  4  0  0  0  0
 34 35  1  0  0  0  0
M  END
> <IC50(uM)>
0.0045

> <Outcome>
1.0

> <BindingDB ID>
1098749; 972595

> <BindingDB MonomerID>
470474

> <BindingDB Ligand Name>
N-(2-chloro-6-fluorophenyl)-5-fluoro-4-[3-(2-hydroxypropan-2-yl)-4-methyl-5-oxo-4,5-dihydro-1H-1,2,4-triazol-1-yl]-2-[(2S)-pentan-2-yloxy]benzamide::US10815215, Example 137::US11130745, Example 137; N-(2-chloro-6-fluorophenyl)-5-fluoro-4-[3-(2-hydroxypropan-2-yl)-4-methyl-5-oxo-4,5-dihydro-1H-1,2,4-triazol-1-yl]-2-[(2S)-pentan-2-yloxy]benzamide::US10815215, Example 137

> <Curation/DataSource>
US Patent

> <Article DOI>
?

> <PMID>
?

> <Patent Number>
US11130745; US10815215

> <Authors>
Gradl, SN; Nguyen, D; Eis, K; Gunther, J; Stellfeld, T; Janzer, A; Christian, S; Muller, T; Sheikh, SE; Sykes, DB; Ferrara, SJ; Krober, M; Merz, C; Niehues, M; Schafer, M; Zimmermann, K; Nising, CF; Gradl, SN; Nguyen, D; Eis, K; Gunther, J; Stellfeld, T; Janzer, A; Christian, S; Muller, T; Sheikh, SE; Zhou, HJ; Zhao, C; Sykes, DB; Ferrara, SJ; Liu, K; Krober, M; Merz, C; Niehues, M; Schafer, M; Zimmermann, K; Nising, CF

> <Link to Ligand in BindingDB>
http://www.bindingdb.org/bind/chemsearch/marvin/MolStructure.jsp?monomerid=470474

> <Link to Ligand-Target Pair in BindingDB>
http://www.bindingdb.org/jsp/dbsearch/PrimarySearch_ki.jsp?energyterm=kJ/mole&tag=r21&monomerid=470474&enzyme=Dihydroorotate+dehydrogenase&column=ki&startPg=0&Increment=50&submit=Search

> <PubChem CID>
134469893

> <PubChem SID>
441609651

$$$$

  Mrv2115 07222212352D          

 27 29  0  0  0  0            999 V2000
   -2.1434   11.7161    0.0000 C   0  0  0  0  0  0  0  0  0  0  0  0
   -2.1434   10.8911    0.0000 O   0  0  0  0  0  0  0  0  0  0  0  0
   -1.4289   10.4786    0.0000 C   0  0  0  0  0  0  0  0  0  0  0  0
   -0.7145   10.8911    0.0000 C   0  0  0  0  0  0  0  0  0  0  0  0
   -0.0000   10.4786    0.0000 C   0  0  0  0  0  0  0  0  0  0  0  0
   -0.0000    9.6536    0.0000 C   0  0  0  0  0  0  0  0  0  0  0  0
   -0.7145    9.2411    0.0000 C   0  0  0  0  0  0  0  0  0  0  0  0
   -0.7145    8.4161    0.0000 C   0  0  0  0  0  0  0  0  0  0  0  0
   -0.0000    8.0036    0.0000 C   0  0  0  0  0  0  0  0  0  0  0  0
   -0.0000    7.1786    0.0000 C   0  0  0  0  0  0  0  0  0  0  0  0
   -0.7145    6.7661    0.0000 C   0  0  0  0  0  0  0  0  0  0  0  0
   -0.7145    5.9411    0.0000 N   0  0  0  0  0  0  0  0  0  0  0  0
   -0.0000    5.5286    0.0000 C   0  0  0  0  0  0  0  0  0  0  0  0
    0.7145    5.9411    0.0000 O   0  0  0  0  0  0  0  0  0  0  0  0
   -0.0000    4.7036    0.0000 C   0  0  0  0  0  0  0  0  0  0  0  0
    0.6674    4.2187    0.0000 C   0  0  0  0  0  0  0  0  0  0  0  0
    1.4521    4.4736    0.0000 C   0  0  0  0  0  0  0  0  0  0  0  0
    1.6236    5.2806    0.0000 O   0  0  0  0  0  0  0  0  0  0  0  0
    2.0652    3.9216    0.0000 O   0  0  0  0  0  0  0  0  0  0  0  0
    0.4125    3.4340    0.0000 C   0  0  0  0  0  0  0  0  0  0  0  0
    0.8974    2.7666    0.0000 O   0  0  0  0  0  0  0  0  0  0  0  0
   -0.4125    3.4340    0.0000 C   0  0  0  0  0  0  0  0  0  0  0  0
   -0.6674    4.2187    0.0000 C   0  0  0  0  0  0  0  0  0  0  0  0
   -1.4289    7.1786    0.0000 C   0  0  0  0  0  0  0  0  0  0  0  0
   -2.1434    6.7661    0.0000 F   0  0  0  0  0  0  0  0  0  0  0  0
   -1.4289    8.0036    0.0000 C   0  0  0  0  0  0  0  0  0  0  0  0
   -1.4289    9.6536    0.0000 C   0  0  0  0  0  0  0  0  0  0  0  0
  1  2  1  0  0  0  0
  2  3  1  0  0  0  0
  3  4  4  0  0  0  0
  4  5  4  0  0  0  0
  5  6  4  0  0  0  0
  6  7  4  0  0  0  0
  7  8  1  0  0  0  0
  8  9  4  0  0  0  0
  9 10  4  0  0  0  0
 10 11  4  0  0  0  0
 11 12  1  0  0  0  0
 12 13  1  0  0  0  0
 13 14  2  0  0  0  0
 13 15  1  0  0  0  0
 15 16  2  0  0  0  0
 16 17  1  0  0  0  0
 17 18  2  0  0  0  0
 17 19  1  0  0  0  0
 16 20  1  0  0  0  0
 20 21  1  0  0  0  0
 20 22  1  0  0  0  0
 22 23  1  0  0  0  0
 15 23  1  0  0  0  0
 11 24  4  0  0  0  0
 24 25  1  0  0  0  0
 24 26  4  0  0  0  0
  8 26  4  0  0  0  0
  7 27  4  0  0  0  0
  3 27  4  0  0  0  0
M  END
> <IC50(uM)>
0.68

> <Outcome>
1.0

> <BindingDB ID>
50319888

> <BindingDB MonomerID>
50173153

> <BindingDB Ligand Name>
2-(3-Fluoro-3'-methoxy-biphenyl-4-ylcarbamoyl)-5-hydroxy-cyclopent-1-enecarboxylic acid::CHEMBL194395

> <Curation/DataSource>
ChEMBL

> <Article DOI>
10.1016/j.bmcl.2005.07.053

> <PMID>
16143532

> <Patent Number>
?

> <Authors>
Leban, J; Kralik, M; Mies, J; Gassen, M; Tentschert, K; Baumgartner, R

> <Link to Ligand in BindingDB>
http://www.bindingdb.org/bind/chemsearch/marvin/MolStructure.jsp?monomerid=50173153

> <Link to Ligand-Target Pair in BindingDB>
http://www.bindingdb.org/jsp/dbsearch/PrimarySearch_ki.jsp?energyterm=kJ/mole&tag=r21&monomerid=50173153&enzyme=Dihydroorotate+dehydrogenase&column=ki&startPg=0&Increment=50&submit=Search

> <PubChem CID>
22042531

> <PubChem SID>
104059124

$$$$

  Mrv2115 07222212352D          

 36 38  0  0  0  0            999 V2000
   -2.1434    8.4161    0.0000 C   0  0  0  0  0  0  0  0  0  0  0  0
   -1.4289    8.0036    0.0000 O   0  0  0  0  0  0  0  0  0  0  0  0
   -0.7145    8.4161    0.0000 C   0  0  0  0  0  0  0  0  0  0  0  0
   -0.7145    9.2411    0.0000 N   0  0  0  0  0  0  0  0  0  0  0  0
   -0.0000    9.6536    0.0000 C   0  0  0  0  0  0  0  0  0  0  0  0
    0.7145    9.2411    0.0000 C   0  0  0  0  0  0  0  0  0  0  0  0
    0.7145    8.4161    0.0000 C   0  0  0  0  0  0  0  0  0  0  0  0
    1.4289    8.0036    0.0000 C   0  0  0  0  0  0  0  0  0  0  0  0
   -0.0000    8.0036    0.0000 C   0  0  0  0  0  0  0  0  0  0  0  0
   -0.0000    7.1786    0.0000 N   0  0  0  0  0  0  0  0  0  0  0  0
    0.7145    6.7661    0.0000 C   0  0  0  0  0  0  0  0  0  0  0  0
    1.4289    7.1786    0.0000 O   0  0  0  0  0  0  0  0  0  0  0  0
    0.7145    5.9411    0.0000 C   0  0  0  0  0  0  0  0  0  0  0  0
    1.4289    5.5286    0.0000 C   0  0  0  0  0  0  0  0  0  0  0  0
    1.4289    4.7036    0.0000 C   0  0  0  0  0  0  0  0  0  0  0  0
    2.1434    4.2911    0.0000 F   0  0  0  0  0  0  0  0  0  0  0  0
    0.7145    4.2911    0.0000 C   0  0  0  0  0  0  0  0  0  0  0  0
    0.7145    3.4661    0.0000 N   0  0  0  0  0  0  0  0  0  0  0  0
    0.0470    2.9812    0.0000 N   0  0  0  0  0  0  0  0  0  0  0  0
    0.3020    2.1965    0.0000 C   0  0  0  0  0  0  0  0  0  0  0  0
   -0.1830    1.5291    0.0000 C   0  0  0  0  0  0  0  0  0  0  0  0
    0.1526    0.7754    0.0000 C   0  0  0  0  0  0  0  0  0  0  0  0
   -1.0034    1.6153    0.0000 O   0  0  0  0  0  0  0  0  0  0  0  0
    1.1270    2.1965    0.0000 N   0  0  0  0  0  0  0  0  0  0  0  0
    1.6119    1.5291    0.0000 C   0  0  0  0  0  0  0  0  0  0  0  0
    1.3819    2.9812    0.0000 C   0  0  0  0  0  0  0  0  0  0  0  0
    2.1665    3.2361    0.0000 O   0  0  0  0  0  0  0  0  0  0  0  0
    0.0000    4.7036    0.0000 C   0  0  0  0  0  0  0  0  0  0  0  0
   -0.0000    5.5286    0.0000 C   0  0  0  0  0  0  0  0  0  0  0  0
   -0.7145    5.9411    0.0000 O   0  0  0  0  0  0  0  0  0  0  0  0
   -1.4289    5.5286    0.0000 C   0  0  0  0  0  0  0  0  0  0  0  0
   -1.4289    4.7036    0.0000 C   0  0  0  0  0  0  0  0  0  0  0  0
   -2.1434    5.9411    0.0000 C   0  0  0  0  0  0  0  0  0  0  0  0
   -1.7309    6.6555    0.0000 F   0  0  0  0  0  0  0  0  0  0  0  0
   -2.5559    5.2266    0.0000 F   0  0  0  0  0  0  0  0  0  0  0  0
   -2.8579    6.3536    0.0000 F   0  0  0  0  0  0  0  0  0  0  0  0
  1  2  1  0  0  0  0
  2  3  1  0  0  0  0
  3  4  4  0  0  0  0
  4  5  4  0  0  0  0
  5  6  4  0  0  0  0
  6  7  4  0  0  0  0
  7  8  1  0  0  0  0
  7  9  4  0  0  0  0
  3  9  4  0  0  0  0
  9 10  1  0  0  0  0
 10 11  1  0  0  0  0
 11 12  2  0  0  0  0
 11 13  1  0  0  0  0
 13 14  4  0  0  0  0
 14 15  4  0  0  0  0
 15 16  1  0  0  0  0
 15 17  4  0  0  0  0
 17 18  1  0  0  0  0
 18 19  4  0  0  0  0
 19 20  4  0  0  0  0
 20 21  1  0  0  0  0
 21 22  1  0  0  0  0
 21 23  1  0  0  0  0
 20 24  4  0  0  0  0
 24 25  1  0  0  0  0
 24 26  4  0  0  0  0
 18 26  4  0  0  0  0
 26 27  2  0  0  0  0
 17 28  4  0  0  0  0
 28 29  4  0  0  0  0
 13 29  4  0  0  0  0
 29 30  1  0  0  0  0
 30 31  1  0  0  0  0
 31 32  1  0  0  0  0
 31 33  1  0  0  0  0
 33 34  1  0  0  0  0
 33 35  1  0  0  0  0
 33 36  1  0  0  0  0
M  END
> <IC50(uM)>
0.14

> <Outcome>
1.0

> <BindingDB ID>
972584; 1098738

> <BindingDB MonomerID>
470460

> <BindingDB Ligand Name>
5-fluoro-4-{3-[(1S)-1-hydroxyethyl]-4-methyl-5-oxo-4,5-dihydro-1H-1,2,4-triazol-1-yl}-N-(2-methoxy-4-methylpyridin-3-yl)-2-{[(2S)-1,1,1-trifluoropropan-2-yl]oxy}benzamide::US10815215, Example 126; 5-fluoro-4-{3-[(1S)-1-hydroxyethyl]-4-methyl-5-oxo-4,5-dihydro-1H-1,2,4-triazol-1-yl}-N-(2-methoxy-4-methylpyridin-3-yl)-2-{[(2S)-1,1,1-trifluoropropan-2-yl]oxy}benzamide::US10815215, Example 126::US11130745, Example 126

> <Curation/DataSource>
US Patent

> <Article DOI>
?

> <PMID>
?

> <Patent Number>
US10815215; US11130745

> <Authors>
Gradl, SN; Nguyen, D; Eis, K; Gunther, J; Stellfeld, T; Janzer, A; Christian, S; Muller, T; Sheikh, SE; Zhou, HJ; Zhao, C; Sykes, DB; Ferrara, SJ; Liu, K; Krober, M; Merz, C; Niehues, M; Schafer, M; Zimmermann, K; Nising, CF; Gradl, SN; Nguyen, D; Eis, K; Gunther, J; Stellfeld, T; Janzer, A; Christian, S; Muller, T; Sheikh, SE; Sykes, DB; Ferrara, SJ; Krober, M; Merz, C; Niehues, M; Schafer, M; Zimmermann, K; Nising, CF

> <Link to Ligand in BindingDB>
http://www.bindingdb.org/bind/chemsearch/marvin/MolStructure.jsp?monomerid=470460

> <Link to Ligand-Target Pair in BindingDB>
http://www.bindingdb.org/jsp/dbsearch/PrimarySearch_ki.jsp?energyterm=kJ/mole&tag=r21&monomerid=470460&enzyme=Dihydroorotate+dehydrogenase&column=ki&startPg=0&Increment=50&submit=Search

> <PubChem CID>
134469882

> <PubChem SID>
441609637

$$$$

  Mrv2115 07222212352D          

 29 32  0  0  0  0            999 V2000
    3.2789    7.0125    0.0000 C   0  0  0  0  0  0  0  0  0  0  0  0
    3.2789    6.1875    0.0000 O   0  0  0  0  0  0  0  0  0  0  0  0
    3.9934    5.7750    0.0000 C   0  0  0  0  0  0  0  0  0  0  0  0
    4.7079    6.1875    0.0000 O   0  0  0  0  0  0  0  0  0  0  0  0
    3.9934    4.9500    0.0000 C   0  0  0  0  0  0  0  0  0  0  0  0
    4.7079    4.5375    0.0000 C   0  0  0  0  0  0  0  0  0  0  0  0
    4.7079    3.7125    0.0000 C   0  0  0  0  0  0  0  0  0  0  0  0
    3.9934    3.3000    0.0000 C   0  0  0  0  0  0  0  0  0  0  0  0
    3.9934    2.4750    0.0000 C   0  0  0  0  0  0  0  0  0  0  0  0
    4.7079    2.0625    0.0000 O   0  0  0  0  0  0  0  0  0  0  0  0
    3.2789    2.0625    0.0000 N   0  0  0  0  0  0  0  0  0  0  0  0
    3.2789    1.2375    0.0000 C   0  0  0  0  0  0  0  0  0  0  0  0
    3.9934    0.8250    0.0000 C   0  0  0  0  0  0  0  0  0  0  0  0
    3.9934    0.0000    0.0000 C   0  0  0  0  0  0  0  0  0  0  0  0
    3.2789   -0.4125    0.0000 C   0  0  0  0  0  0  0  0  0  0  0  0
    2.5645    0.0000    0.0000 C   0  0  0  0  0  0  0  0  0  0  0  0
    2.5645    0.8250    0.0000 C   0  0  0  0  0  0  0  0  0  0  0  0
    1.7798    1.0799    0.0000 C   0  0  0  0  0  0  0  0  0  0  0  0
    1.2949    0.4125    0.0000 N   0  0  0  0  0  0  0  0  0  0  0  0
    1.7798   -0.2549    0.0000 N   0  0  0  0  0  0  0  0  0  0  0  0
    1.5249   -1.0396    0.0000 C   0  0  0  0  0  0  0  0  0  0  0  0
    2.0769   -1.6527    0.0000 C   0  0  0  0  0  0  0  0  0  0  0  0
    1.8220   -2.4373    0.0000 C   0  0  0  0  0  0  0  0  0  0  0  0
    1.0150   -2.6088    0.0000 C   0  0  0  0  0  0  0  0  0  0  0  0
    0.4630   -1.9957    0.0000 C   0  0  0  0  0  0  0  0  0  0  0  0
    0.7179   -1.2111    0.0000 C   0  0  0  0  0  0  0  0  0  0  0  0
    0.1659   -0.5980    0.0000 F   0  0  0  0  0  0  0  0  0  0  0  0
    3.2789    3.7125    0.0000 N   0  0  0  0  0  0  0  0  0  0  0  0
    3.2789    4.5375    0.0000 C   0  0  0  0  0  0  0  0  0  0  0  0
  1  2  1  0  0  0  0
  2  3  1  0  0  0  0
  3  4  2  0  0  0  0
  3  5  1  0  0  0  0
  5  6  4  0  0  0  0
  6  7  4  0  0  0  0
  7  8  4  0  0  0  0
  8  9  1  0  0  0  0
  9 10  2  0  0  0  0
  9 11  1  0  0  0  0
 11 12  1  0  0  0  0
 12 13  1  0  0  0  0
 13 14  1  0  0  0  0
 14 15  1  0  0  0  0
 15 16  1  0  0  0  0
 16 17  4  0  0  0  0
 12 17  1  0  0  0  0
 17 18  4  0  0  0  0
 18 19  4  0  0  0  0
 19 20  4  0  0  0  0
 16 20  4  0  0  0  0
 20 21  1  0  0  0  0
 21 22  4  0  0  0  0
 22 23  4  0  0  0  0
 23 24  4  0  0  0  0
 24 25  4  0  0  0  0
 25 26  4  0  0  0  0
 21 26  4  0  0  0  0
 26 27  1  0  0  0  0
  8 28  4  0  0  0  0
 28 29  4  0  0  0  0
  5 29  4  0  0  0  0
M  END
> <IC50(uM)>
10.0

> <Outcome>
0.0

> <BindingDB ID>
51334949; 993076

> <BindingDB MonomerID>
477578

> <BindingDB Ligand Name>
Methyl 6-({[1-(2-fluorophenyl)-4,5,6,7-tetrahydro-1H-indazol-4-yl]amino}carbonyl)nicotinate::US10889564, Example 7

> <Curation/DataSource>
ChEMBL; US Patent

> <Article DOI>
10.1021/acs.jmedchem.9b01658; ?

> <PMID>
32212728; ?

> <Patent Number>
?; US10889564

> <Authors>
Popova, G; Ladds, MJGW; Johansson, L; Saleh, A; Larsson, J; Sandberg, L; Sahlberg, SH; Qian, W; Gullberg, H; Garg, N; Gustavsson, AL; Haraldsson, M; Lane, D; Yngve, U; Lain, S; Lain, S; Drummond, C; Leeuwen, IV; Haraldsson, M; Johansson, L; Sandberg, L; Yngve, U

> <Link to Ligand in BindingDB>
http://www.bindingdb.org/bind/chemsearch/marvin/MolStructure.jsp?monomerid=477578

> <Link to Ligand-Target Pair in BindingDB>
http://www.bindingdb.org/jsp/dbsearch/PrimarySearch_ki.jsp?energyterm=kJ/mole&tag=r21&monomerid=477578&enzyme=Dihydroorotate+dehydrogenase&column=ki&startPg=0&Increment=50&submit=Search

> <PubChem CID>
24792048

> <PubChem SID>
442137195

$$$$

  Mrv2115 07222212352D          

 35 38  0  0  0  0            999 V2000
   -3.1034    2.1599    0.0000 C   0  0  0  0  0  0  0  0  0  0  0  0
   -2.6909    1.4455    0.0000 C   0  0  0  0  0  0  0  0  0  0  0  0
   -3.1034    0.7310    0.0000 O   0  0  0  0  0  0  0  0  0  0  0  0
   -2.6909    0.0165    0.0000 C   0  0  0  0  0  0  0  0  0  0  0  0
   -1.8659    0.0165    0.0000 C   0  0  0  0  0  0  0  0  0  0  0  0
   -1.4534   -0.6979    0.0000 C   0  0  0  0  0  0  0  0  0  0  0  0
   -0.6284   -0.6979    0.0000 N   0  0  0  0  0  0  0  0  0  0  0  0
   -0.1435   -1.3654    0.0000 N   0  0  0  0  0  0  0  0  0  0  0  0
    0.6411   -1.1104    0.0000 C   0  0  0  0  0  0  0  0  0  0  0  0
    0.6411   -0.2854    0.0000 N   0  0  0  0  0  0  0  0  0  0  0  0
   -0.1435   -0.0305    0.0000 C   0  0  0  0  0  0  0  0  0  0  0  0
   -0.3984    0.7541    0.0000 O   0  0  0  0  0  0  0  0  0  0  0  0
    1.3556    0.1271    0.0000 C   0  0  0  0  0  0  0  0  0  0  0  0
    2.0701   -0.2854    0.0000 C   0  0  0  0  0  0  0  0  0  0  0  0
    2.0701   -1.1104    0.0000 O   0  0  0  0  0  0  0  0  0  0  0  0
    1.3556   -1.5229    0.0000 C   0  0  0  0  0  0  0  0  0  0  0  0
   -1.8659   -1.4124    0.0000 C   0  0  0  0  0  0  0  0  0  0  0  0
   -1.4534   -2.1269    0.0000 F   0  0  0  0  0  0  0  0  0  0  0  0
   -2.6909   -1.4124    0.0000 C   0  0  0  0  0  0  0  0  0  0  0  0
   -3.1034   -0.6979    0.0000 C   0  0  0  0  0  0  0  0  0  0  0  0
   -3.9284   -0.6979    0.0000 C   0  0  0  0  0  0  0  0  0  0  0  0
   -4.3409    0.0165    0.0000 O   0  0  0  0  0  0  0  0  0  0  0  0
   -4.3409   -1.4124    0.0000 N   0  0  0  0  0  0  0  0  0  0  0  0
   -5.1659   -1.4124    0.0000 C   0  0  0  0  0  0  0  0  0  0  0  0
   -5.5784   -2.1269    0.0000 C   0  0  0  0  0  0  0  0  0  0  0  0
   -6.4034   -2.1269    0.0000 C   0  0  0  0  0  0  0  0  0  0  0  0
   -6.8159   -2.8414    0.0000 F   0  0  0  0  0  0  0  0  0  0  0  0
   -6.8159   -1.4124    0.0000 C   0  0  0  0  0  0  0  0  0  0  0  0
   -6.4034   -0.6979    0.0000 C   0  0  0  0  0  0  0  0  0  0  0  0
   -5.5784   -0.6979    0.0000 C   0  0  0  0  0  0  0  0  0  0  0  0
   -5.1659    0.0165    0.0000 Cl  0  0  0  0  0  0  0  0  0  0  0  0
   -1.8659    1.4455    0.0000 C   0  0  0  0  0  0  0  0  0  0  0  0
   -1.8659    0.6205    0.0000 F   0  0  0  0  0  0  0  0  0  0  0  0
   -1.8659    2.2705    0.0000 F   0  0  0  0  0  0  0  0  0  0  0  0
   -1.0409    1.4455    0.0000 F   0  0  0  0  0  0  0  0  0  0  0  0
  1  2  1  0  0  0  0
  2  3  1  0  0  0  0
  3  4  1  0  0  0  0
  4  5  4  0  0  0  0
  5  6  4  0  0  0  0
  6  7  1  0  0  0  0
  7  8  4  0  0  0  0
  8  9  4  0  0  0  0
  9 10  4  0  0  0  0
 10 11  4  0  0  0  0
  7 11  4  0  0  0  0
 11 12  2  0  0  0  0
 10 13  1  0  0  0  0
 13 14  1  0  0  0  0
 14 15  1  0  0  0  0
 15 16  1  0  0  0  0
  9 16  1  0  0  0  0
  6 17  4  0  0  0  0
 17 18  1  0  0  0  0
 17 19  4  0  0  0  0
 19 20  4  0  0  0  0
  4 20  4  0  0  0  0
 20 21  1  0  0  0  0
 21 22  2  0  0  0  0
 21 23  1  0  0  0  0
 23 24  1  0  0  0  0
 24 25  4  0  0  0  0
 25 26  4  0  0  0  0
 26 27  1  0  0  0  0
 26 28  4  0  0  0  0
 28 29  4  0  0  0  0
 29 30  4  0  0  0  0
 24 30  4  0  0  0  0
 30 31  1  0  0  0  0
  2 32  1  0  0  0  0
 32 33  1  0  0  0  0
 32 34  1  0  0  0  0
 32 35  1  0  0  0  0
M  END
> <IC50(uM)>
0.45

> <Outcome>
1.0

> <BindingDB ID>
1020593

> <BindingDB MonomerID>
490532

> <BindingDB Ligand Name>
N-(2-chloro-5-fluorophenyl)-5-fluoro-4-(3-oxo-5,6-dihydro-3H-[1,2,4]triazolo[3,4-c][1,4]oxazin-2(8H)-yl)-2-{[(2S)-1,1,1-trifluoropropan-2-yl]oxy}benzamide::US10968216, Example 200

> <Curation/DataSource>
US Patent

> <Article DOI>
?

> <PMID>
?

> <Patent Number>
US10968216

> <Authors>
Gradl, SN; Nguyen, D; Eis, K; Gunther, J; Stellfeld, T; Janzer, A; Christian, S; Mueller, T; Sheikh, SE; Zhou, HJ; Zhao, C; Sykes, DB; Ferrara, SJ; Liu, K; Herbert, SA; Merz, C; Niehues, M; Nising, CF; Schafer, M; Zimmermann, K; Knablein, J; Thede, K; Faupel, T

> <Link to Ligand in BindingDB>
http://www.bindingdb.org/bind/chemsearch/marvin/MolStructure.jsp?monomerid=490532

> <Link to Ligand-Target Pair in BindingDB>
http://www.bindingdb.org/jsp/dbsearch/PrimarySearch_ki.jsp?energyterm=kJ/mole&tag=r21&monomerid=490532&enzyme=Dihydroorotate+dehydrogenase&column=ki&startPg=0&Increment=50&submit=Search

> <PubChem CID>
134474375

> <PubChem SID>
447117258

$$$$

  Mrv2115 07222212352D          

 36 40  0  0  0  0            999 V2000
   -5.1659   -2.8414    0.0000 C   0  0  0  0  0  0  0  0  0  0  0  0
   -5.5784   -2.1269    0.0000 C   0  0  0  0  0  0  0  0  0  0  0  0
   -6.4034   -2.1269    0.0000 C   0  0  0  0  0  0  0  0  0  0  0  0
   -6.8159   -1.4124    0.0000 C   0  0  0  0  0  0  0  0  0  0  0  0
   -6.4034   -0.6979    0.0000 N   0  0  0  0  0  0  0  0  0  0  0  0
   -5.5784   -0.6979    0.0000 N   0  0  0  0  0  0  0  0  0  0  0  0
   -5.1659   -1.4124    0.0000 C   0  0  0  0  0  0  0  0  0  0  0  0
   -4.3409   -1.4124    0.0000 N   0  0  0  0  0  0  0  0  0  0  0  0
   -3.9284   -0.6979    0.0000 C   0  0  0  0  0  0  0  0  0  0  0  0
   -4.3409    0.0165    0.0000 O   0  0  0  0  0  0  0  0  0  0  0  0
   -3.1034   -0.6979    0.0000 C   0  0  0  0  0  0  0  0  0  0  0  0
   -2.6909    0.0165    0.0000 C   0  0  0  0  0  0  0  0  0  0  0  0
   -1.8659    0.0165    0.0000 C   0  0  0  0  0  0  0  0  0  0  0  0
   -1.4534    0.7310    0.0000 F   0  0  0  0  0  0  0  0  0  0  0  0
   -1.4534   -0.6979    0.0000 C   0  0  0  0  0  0  0  0  0  0  0  0
   -0.6284   -0.6979    0.0000 N   0  0  0  0  0  0  0  0  0  0  0  0
   -0.1435   -1.3654    0.0000 N   0  0  0  0  0  0  0  0  0  0  0  0
    0.6411   -1.1104    0.0000 C   0  0  0  0  0  0  0  0  0  0  0  0
    0.6411   -0.2854    0.0000 N   0  0  0  0  0  0  0  0  0  0  0  0
   -0.1435   -0.0305    0.0000 C   0  0  0  0  0  0  0  0  0  0  0  0
   -0.3984    0.7541    0.0000 O   0  0  0  0  0  0  0  0  0  0  0  0
    1.3556    0.1271    0.0000 C   0  0  0  0  0  0  0  0  0  0  0  0
    2.0701   -0.2854    0.0000 C   0  0  0  0  0  0  0  0  0  0  0  0
    2.0701   -1.1104    0.0000 C   0  0  0  0  0  0  0  0  0  0  0  0
    1.3556   -1.5229    0.0000 C   0  0  0  0  0  0  0  0  0  0  0  0
   -1.8659   -1.4124    0.0000 C   0  0  0  0  0  0  0  0  0  0  0  0
   -2.6909   -1.4124    0.0000 C   0  0  0  0  0  0  0  0  0  0  0  0
   -3.1034   -2.1269    0.0000 O   0  0  0  0  0  0  0  0  0  0  0  0
   -2.6909   -2.8414    0.0000 C   0  0  0  0  0  0  0  0  0  0  0  0
   -1.8659   -2.8414    0.0000 C   0  0  0  0  0  0  0  0  0  0  0  0
   -3.1034   -3.5558    0.0000 C   0  0  0  0  0  0  0  0  0  0  0  0
   -2.6909   -4.2703    0.0000 C   0  0  0  0  0  0  0  0  0  0  0  0
   -3.1034   -4.9848    0.0000 C   0  0  0  0  0  0  0  0  0  0  0  0
   -3.9284   -4.9848    0.0000 C   0  0  0  0  0  0  0  0  0  0  0  0
   -4.3409   -4.2703    0.0000 C   0  0  0  0  0  0  0  0  0  0  0  0
   -3.9284   -3.5558    0.0000 C   0  0  0  0  0  0  0  0  0  0  0  0
  1  2  1  0  0  0  0
  2  3  4  0  0  0  0
  3  4  4  0  0  0  0
  4  5  4  0  0  0  0
  5  6  4  0  0  0  0
  6  7  4  0  0  0  0
  2  7  4  0  0  0  0
  7  8  1  0  0  0  0
  8  9  1  0  0  0  0
  9 10  2  0  0  0  0
  9 11  1  0  0  0  0
 11 12  4  0  0  0  0
 12 13  4  0  0  0  0
 13 14  1  0  0  0  0
 13 15  4  0  0  0  0
 15 16  1  0  0  0  0
 16 17  4  0  0  0  0
 17 18  4  0  0  0  0
 18 19  4  0  0  0  0
 19 20  4  0  0  0  0
 16 20  4  0  0  0  0
 20 21  2  0  0  0  0
 19 22  1  0  0  0  0
 22 23  1  0  0  0  0
 23 24  1  0  0  0  0
 24 25  1  0  0  0  0
 18 25  1  0  0  0  0
 15 26  4  0  0  0  0
 26 27  4  0  0  0  0
 11 27  4  0  0  0  0
 27 28  1  0  0  0  0
 28 29  1  0  0  0  0
 29 30  1  0  0  0  0
 29 31  1  0  0  0  0
 31 32  1  0  0  0  0
 32 33  1  0  0  0  0
 33 34  1  0  0  0  0
 34 35  1  0  0  0  0
 35 36  1  0  0  0  0
 31 36  1  0  0  0  0
M  END
> <IC50(uM)>
0.0029

> <Outcome>
1.0

> <BindingDB ID>
1020519

> <BindingDB MonomerID>
490467

> <BindingDB Ligand Name>
2-[(1S)-1-cyclohexylethoxy]-5-fluoro-N-(4-methylpyridazin-3-yl)-4-(3-oxo-5,6,7,8-tetrahydro[1,2,4]triazolo[4,3-a]pyridin-2(3H)-yl)benzamide::US10968216, Example 135

> <Curation/DataSource>
US Patent

> <Article DOI>
?

> <PMID>
?

> <Patent Number>
US10968216

> <Authors>
Gradl, SN; Nguyen, D; Eis, K; Gunther, J; Stellfeld, T; Janzer, A; Christian, S; Mueller, T; Sheikh, SE; Zhou, HJ; Zhao, C; Sykes, DB; Ferrara, SJ; Liu, K; Herbert, SA; Merz, C; Niehues, M; Nising, CF; Schafer, M; Zimmermann, K; Knablein, J; Thede, K; Faupel, T

> <Link to Ligand in BindingDB>
http://www.bindingdb.org/bind/chemsearch/marvin/MolStructure.jsp?monomerid=490467

> <Link to Ligand-Target Pair in BindingDB>
http://www.bindingdb.org/jsp/dbsearch/PrimarySearch_ki.jsp?energyterm=kJ/mole&tag=r21&monomerid=490467&enzyme=Dihydroorotate+dehydrogenase&column=ki&startPg=0&Increment=50&submit=Search

> <PubChem CID>
134473948

> <PubChem SID>
447117194

$$$$

  Mrv2115 07222212352D          

 25 27  0  0  0  0            999 V2000
    4.0668    2.3479    0.0000 C   0  0  0  0  0  0  0  0  0  0  0  0
    3.3523    1.9354    0.0000 C   0  0  0  0  0  0  0  0  0  0  0  0
    3.3523    1.1104    0.0000 C   0  0  0  0  0  0  0  0  0  0  0  0
    2.6378    0.6979    0.0000 C   0  0  0  0  0  0  0  0  0  0  0  0
    2.6378   -0.1271    0.0000 N   0  0  0  0  0  0  0  0  0  0  0  0
    3.3523   -0.5396    0.0000 C   0  0  0  0  0  0  0  0  0  0  0  0
    4.0668   -0.1271    0.0000 C   0  0  0  0  0  0  0  0  0  0  0  0
    4.7812   -0.5396    0.0000 C   0  0  0  0  0  0  0  0  0  0  0  0
    4.7812   -1.3646    0.0000 C   0  0  0  0  0  0  0  0  0  0  0  0
    5.4957   -1.7771    0.0000 C   0  0  0  0  0  0  0  0  0  0  0  0
    6.2102   -2.1896    0.0000 F   0  0  0  0  0  0  0  0  0  0  0  0
    5.9082   -1.0626    0.0000 F   0  0  0  0  0  0  0  0  0  0  0  0
    5.0832   -2.4915    0.0000 F   0  0  0  0  0  0  0  0  0  0  0  0
    4.0668   -1.7771    0.0000 C   0  0  0  0  0  0  0  0  0  0  0  0
    3.3523   -1.3646    0.0000 C   0  0  0  0  0  0  0  0  0  0  0  0
    1.9233    1.1104    0.0000 N   0  0  0  0  0  0  0  0  0  0  0  0
    1.1387    0.8555    0.0000 N   0  0  0  0  0  0  0  0  0  0  0  0
    0.6538    1.5229    0.0000 C   0  0  0  0  0  0  0  0  0  0  0  0
   -0.1712    1.5229    0.0000 C   0  0  0  0  0  0  0  0  0  0  0  0
   -0.9962    1.5229    0.0000 F   0  0  0  0  0  0  0  0  0  0  0  0
   -0.1712    2.3479    0.0000 F   0  0  0  0  0  0  0  0  0  0  0  0
   -0.1712    0.6979    0.0000 F   0  0  0  0  0  0  0  0  0  0  0  0
    1.1387    2.1904    0.0000 N   0  0  0  0  0  0  0  0  0  0  0  0
    1.9233    1.9354    0.0000 C   0  0  0  0  0  0  0  0  0  0  0  0
    2.6378    2.3479    0.0000 N   0  0  0  0  0  0  0  0  0  0  0  0
  1  2  1  0  0  0  0
  2  3  4  0  0  0  0
  3  4  4  0  0  0  0
  4  5  1  0  0  0  0
  5  6  1  0  0  0  0
  6  7  4  0  0  0  0
  7  8  4  0  0  0  0
  8  9  4  0  0  0  0
  9 10  1  0  0  0  0
 10 11  1  0  0  0  0
 10 12  1  0  0  0  0
 10 13  1  0  0  0  0
  9 14  4  0  0  0  0
 14 15  4  0  0  0  0
  6 15  4  0  0  0  0
  4 16  4  0  0  0  0
 16 17  4  0  0  0  0
 17 18  4  0  0  0  0
 18 19  1  0  0  0  0
 19 20  1  0  0  0  0
 19 21  1  0  0  0  0
 19 22  1  0  0  0  0
 18 23  4  0  0  0  0
 23 24  4  0  0  0  0
 16 24  4  0  0  0  0
 24 25  4  0  0  0  0
  2 25  4  0  0  0  0
M  END
> <IC50(uM)>
100.0

> <Outcome>
0.0

> <BindingDB ID>
50720155; 50102033

> <BindingDB MonomerID>
50365225

> <BindingDB Ligand Name>
CHEMBL1956290::US9238653, Table 5, Compound 14

> <Curation/DataSource>
ChEMBL

> <Article DOI>
10.1021/jm200592f; 10.1021/jm500481t

> <PMID>
21696174; 24801997

> <Patent Number>
?

> <Authors>
Coteron, JM; Marco, M; Esquivias, J; Deng, X; White, KL; White, J; Koltun, M; El Mazouni, F; Kokkonda, S; Katneni, K; Bhamidipati, R; Shackleford, DM; Angulo-Barturen, I; Ferrer, SB; Jimenez-Diaz, MB; Gamo, FJ; Goldsmith, EJ; Charman, WN; Bathurst, I; Floyd, D; Matthews, D; Burrows, JN; Rathod, PK; Charman, SA; Phillips, MA; Deng, X; Kokkonda, S; El Mazouni, F; White, J; Burrows, JN; Kaminsky, W; Charman, SA; Matthews, D; Rathod, PK; Phillips, MA

> <Link to Ligand in BindingDB>
http://www.bindingdb.org/bind/chemsearch/marvin/MolStructure.jsp?monomerid=50365225

> <Link to Ligand-Target Pair in BindingDB>
http://www.bindingdb.org/jsp/dbsearch/PrimarySearch_ki.jsp?energyterm=kJ/mole&tag=r21&monomerid=50365225&enzyme=Dihydroorotate+dehydrogenase&column=ki&startPg=0&Increment=50&submit=Search

> <PubChem CID>
51347103

> <PubChem SID>
136969287

$$$$

  Mrv2115 07222212352D          

 22 24  0  0  0  0            999 V2000
    4.0668    2.3479    0.0000 C   0  0  0  0  0  0  0  0  0  0  0  0
    3.3523    1.9354    0.0000 C   0  0  0  0  0  0  0  0  0  0  0  0
    3.3523    1.1104    0.0000 C   0  0  0  0  0  0  0  0  0  0  0  0
    2.6378    0.6979    0.0000 C   0  0  0  0  0  0  0  0  0  0  0  0
    2.6378   -0.1271    0.0000 N   0  0  0  0  0  0  0  0  0  0  0  0
    1.9233   -0.5396    0.0000 C   0  0  0  0  0  0  0  0  0  0  0  0
    1.9233   -1.3646    0.0000 C   0  0  0  0  0  0  0  0  0  0  0  0
    1.2089   -1.7771    0.0000 C   0  0  0  0  0  0  0  0  0  0  0  0
    0.4944   -1.3646    0.0000 C   0  0  0  0  0  0  0  0  0  0  0  0
   -0.2201   -1.7771    0.0000 O   0  0  0  0  0  0  0  0  0  0  0  0
   -0.2201   -2.6021    0.0000 C   0  0  0  0  0  0  0  0  0  0  0  0
   -0.2201   -3.4271    0.0000 F   0  0  0  0  0  0  0  0  0  0  0  0
   -1.0451   -2.6021    0.0000 F   0  0  0  0  0  0  0  0  0  0  0  0
    0.6049   -2.6021    0.0000 F   0  0  0  0  0  0  0  0  0  0  0  0
    0.4944   -0.5396    0.0000 C   0  0  0  0  0  0  0  0  0  0  0  0
    1.2089   -0.1271    0.0000 C   0  0  0  0  0  0  0  0  0  0  0  0
    1.9233    1.1104    0.0000 N   0  0  0  0  0  0  0  0  0  0  0  0
    1.1387    0.8555    0.0000 N   0  0  0  0  0  0  0  0  0  0  0  0
    0.6538    1.5229    0.0000 C   0  0  0  0  0  0  0  0  0  0  0  0
    1.1387    2.1904    0.0000 N   0  0  0  0  0  0  0  0  0  0  0  0
    1.9233    1.9354    0.0000 C   0  0  0  0  0  0  0  0  0  0  0  0
    2.6378    2.3479    0.0000 N   0  0  0  0  0  0  0  0  0  0  0  0
  1  2  1  0  0  0  0
  2  3  4  0  0  0  0
  3  4  4  0  0  0  0
  4  5  1  0  0  0  0
  5  6  1  0  0  0  0
  6  7  4  0  0  0  0
  7  8  4  0  0  0  0
  8  9  4  0  0  0  0
  9 10  1  0  0  0  0
 10 11  1  0  0  0  0
 11 12  1  0  0  0  0
 11 13  1  0  0  0  0
 11 14  1  0  0  0  0
  9 15  4  0  0  0  0
 15 16  4  0  0  0  0
  6 16  4  0  0  0  0
  4 17  4  0  0  0  0
 17 18  4  0  0  0  0
 18 19  4  0  0  0  0
 19 20  4  0  0  0  0
 20 21  4  0  0  0  0
 17 21  4  0  0  0  0
 21 22  4  0  0  0  0
  2 22  4  0  0  0  0
M  END
> <IC50(uM)>
100.0

> <Outcome>
0.0

> <BindingDB ID>
52449

> <BindingDB MonomerID>
28819

> <BindingDB Ligand Name>
5-methyl-N-[4-(trifluoromethoxy)phenyl]-[1,2,4]triazolo[1,5-a]pyrimidin-7-amine::triazolopyrimidine-based compound, DSM87

> <Curation/DataSource>
Curated from the literature by BindingDB

> <Article DOI>
10.1021/jm801343r

> <PMID>
19296651

> <Patent Number>
?

> <Authors>
Gujjar, R; Marwaha, A; El Mazouni, F; White, J; White, KL; Creason, S; Shackleford, DM; Baldwin, J; Charman, WN; Buckner, FS; Charman, S; Rathod, PK; Phillips, MA

> <Link to Ligand in BindingDB>
http://www.bindingdb.org/bind/chemsearch/marvin/MolStructure.jsp?monomerid=28819

> <Link to Ligand-Target Pair in BindingDB>
http://www.bindingdb.org/jsp/dbsearch/PrimarySearch_ki.jsp?energyterm=kJ/mole&tag=r21&monomerid=28819&enzyme=Dihydroorotate+Dehydrogenase+%28DHODH%29&column=ki&startPg=0&Increment=50&submit=Search

> <PubChem CID>
1460771

> <PubChem SID>
58098007

$$$$

  Mrv2115 07222212352D          

 36 39  0  0  0  0            999 V2000
   -3.1034    2.1599    0.0000 C   0  0  0  0  0  0  0  0  0  0  0  0
   -2.6909    1.4455    0.0000 C   0  0  0  0  0  0  0  0  0  0  0  0
   -3.1034    0.7310    0.0000 O   0  0  0  0  0  0  0  0  0  0  0  0
   -2.6909    0.0165    0.0000 C   0  0  0  0  0  0  0  0  0  0  0  0
   -1.8659    0.0165    0.0000 C   0  0  0  0  0  0  0  0  0  0  0  0
   -1.4534   -0.6979    0.0000 C   0  0  0  0  0  0  0  0  0  0  0  0
   -0.6284   -0.6979    0.0000 N   0  0  0  0  0  0  0  0  0  0  0  0
   -0.1435   -1.3654    0.0000 N   0  0  0  0  0  0  0  0  0  0  0  0
    0.6411   -1.1104    0.0000 C   0  0  0  0  0  0  0  0  0  0  0  0
    0.6411   -0.2854    0.0000 N   0  0  0  0  0  0  0  0  0  0  0  0
   -0.1435   -0.0305    0.0000 C   0  0  0  0  0  0  0  0  0  0  0  0
   -0.3984    0.7541    0.0000 O   0  0  0  0  0  0  0  0  0  0  0  0
    1.3556    0.1271    0.0000 C   0  0  0  0  0  0  0  0  0  0  0  0
    2.0701   -0.2854    0.0000 C   0  0  0  0  0  0  0  0  0  0  0  0
    2.0701   -1.1104    0.0000 O   0  0  0  0  0  0  0  0  0  0  0  0
    1.3556   -1.5229    0.0000 C   0  0  0  0  0  0  0  0  0  0  0  0
   -1.8659   -1.4124    0.0000 C   0  0  0  0  0  0  0  0  0  0  0  0
   -1.4534   -2.1269    0.0000 F   0  0  0  0  0  0  0  0  0  0  0  0
   -2.6909   -1.4124    0.0000 C   0  0  0  0  0  0  0  0  0  0  0  0
   -3.1034   -0.6979    0.0000 C   0  0  0  0  0  0  0  0  0  0  0  0
   -3.9284   -0.6979    0.0000 C   0  0  0  0  0  0  0  0  0  0  0  0
   -4.3409    0.0165    0.0000 O   0  0  0  0  0  0  0  0  0  0  0  0
   -4.3409   -1.4124    0.0000 N   0  0  0  0  0  0  0  0  0  0  0  0
   -5.1659   -1.4124    0.0000 C   0  0  0  0  0  0  0  0  0  0  0  0
   -5.5784   -2.1269    0.0000 C   0  0  0  0  0  0  0  0  0  0  0  0
   -6.4034   -2.1269    0.0000 C   0  0  0  0  0  0  0  0  0  0  0  0
   -6.8159   -1.4124    0.0000 C   0  0  0  0  0  0  0  0  0  0  0  0
   -7.6409   -1.4124    0.0000 F   0  0  0  0  0  0  0  0  0  0  0  0
   -6.4034   -0.6979    0.0000 C   0  0  0  0  0  0  0  0  0  0  0  0
   -5.5784   -0.6979    0.0000 C   0  0  0  0  0  0  0  0  0  0  0  0
   -5.1659    0.0165    0.0000 C   0  0  0  0  0  0  0  0  0  0  0  0
   -4.7534    0.7310    0.0000 N   0  0  0  0  0  0  0  0  0  0  0  0
   -1.8659    1.4455    0.0000 C   0  0  0  0  0  0  0  0  0  0  0  0
   -1.8659    0.6205    0.0000 F   0  0  0  0  0  0  0  0  0  0  0  0
   -1.8659    2.2705    0.0000 F   0  0  0  0  0  0  0  0  0  0  0  0
   -1.0409    1.4455    0.0000 F   0  0  0  0  0  0  0  0  0  0  0  0
  1  2  1  0  0  0  0
  2  3  1  0  0  0  0
  3  4  1  0  0  0  0
  4  5  4  0  0  0  0
  5  6  4  0  0  0  0
  6  7  1  0  0  0  0
  7  8  4  0  0  0  0
  8  9  4  0  0  0  0
  9 10  4  0  0  0  0
 10 11  4  0  0  0  0
  7 11  4  0  0  0  0
 11 12  2  0  0  0  0
 10 13  1  0  0  0  0
 13 14  1  0  0  0  0
 14 15  1  0  0  0  0
 15 16  1  0  0  0  0
  9 16  1  0  0  0  0
  6 17  4  0  0  0  0
 17 18  1  0  0  0  0
 17 19  4  0  0  0  0
 19 20  4  0  0  0  0
  4 20  4  0  0  0  0
 20 21  1  0  0  0  0
 21 22  2  0  0  0  0
 21 23  1  0  0  0  0
 23 24  1  0  0  0  0
 24 25  4  0  0  0  0
 25 26  4  0  0  0  0
 26 27  4  0  0  0  0
 27 28  1  0  0  0  0
 27 29  4  0  0  0  0
 29 30  4  0  0  0  0
 24 30  4  0  0  0  0
 30 31  1  0  0  0  0
 31 32  3  0  0  0  0
  2 33  1  0  0  0  0
 33 34  1  0  0  0  0
 33 35  1  0  0  0  0
 33 36  1  0  0  0  0
M  END
> <IC50(uM)>
1.0

> <Outcome>
1.0

> <BindingDB ID>
1020596

> <BindingDB MonomerID>
490535

> <BindingDB Ligand Name>
N-(2-cyano-4-fluorophenyl)-5-fluoro-4-(3-oxo-5,6-dihydro-3H-[1,2,4]triazolo[3,4-c][1,4]oxazin-2(8H)-yl)-2-{[(2S)-1,1,1-trifluoropropan-2-yl]oxy}benzamide::US10968216, Example 203

> <Curation/DataSource>
US Patent

> <Article DOI>
?

> <PMID>
?

> <Patent Number>
US10968216

> <Authors>
Gradl, SN; Nguyen, D; Eis, K; Gunther, J; Stellfeld, T; Janzer, A; Christian, S; Mueller, T; Sheikh, SE; Zhou, HJ; Zhao, C; Sykes, DB; Ferrara, SJ; Liu, K; Herbert, SA; Merz, C; Niehues, M; Nising, CF; Schafer, M; Zimmermann, K; Knablein, J; Thede, K; Faupel, T

> <Link to Ligand in BindingDB>
http://www.bindingdb.org/bind/chemsearch/marvin/MolStructure.jsp?monomerid=490535

> <Link to Ligand-Target Pair in BindingDB>
http://www.bindingdb.org/jsp/dbsearch/PrimarySearch_ki.jsp?energyterm=kJ/mole&tag=r21&monomerid=490535&enzyme=Dihydroorotate+dehydrogenase&column=ki&startPg=0&Increment=50&submit=Search

> <PubChem CID>
134474286

> <PubChem SID>
447117261

$$$$

  Mrv2115 07222212352D          

 28 32  0  0  0  0            999 V2000
   -0.5837    0.0165    0.0000 O   0  0  0  0  0  0  0  0  0  0  0  0
   -0.1712   -0.6979    0.0000 C   0  0  0  0  0  0  0  0  0  0  0  0
   -0.5837   -1.4124    0.0000 N   0  0  0  0  0  0  0  0  0  0  0  0
   -1.4087   -1.4124    0.0000 C   0  0  0  0  0  0  0  0  0  0  0  0
   -1.8212   -2.1269    0.0000 C   0  0  0  0  0  0  0  0  0  0  0  0
   -2.6462   -2.1269    0.0000 C   0  0  0  0  0  0  0  0  0  0  0  0
   -3.0587   -1.4124    0.0000 C   0  0  0  0  0  0  0  0  0  0  0  0
   -2.6462   -0.6979    0.0000 C   0  0  0  0  0  0  0  0  0  0  0  0
   -1.8212   -0.6979    0.0000 C   0  0  0  0  0  0  0  0  0  0  0  0
   -1.5663    0.0867    0.0000 C   0  0  0  0  0  0  0  0  0  0  0  0
   -2.2337    0.5716    0.0000 N   0  0  0  0  0  0  0  0  0  0  0  0
   -2.9011    0.0867    0.0000 N   0  0  0  0  0  0  0  0  0  0  0  0
   -3.6858    0.3416    0.0000 C   0  0  0  0  0  0  0  0  0  0  0  0
   -4.2989   -0.2104    0.0000 C   0  0  0  0  0  0  0  0  0  0  0  0
   -5.0835    0.0445    0.0000 C   0  0  0  0  0  0  0  0  0  0  0  0
   -5.2550    0.8515    0.0000 C   0  0  0  0  0  0  0  0  0  0  0  0
   -4.6419    1.4035    0.0000 C   0  0  0  0  0  0  0  0  0  0  0  0
   -3.8573    1.1486    0.0000 C   0  0  0  0  0  0  0  0  0  0  0  0
   -3.2442    1.7006    0.0000 F   0  0  0  0  0  0  0  0  0  0  0  0
    0.6538   -0.6979    0.0000 C   0  0  0  0  0  0  0  0  0  0  0  0
    1.1387   -0.0305    0.0000 N   0  0  0  0  0  0  0  0  0  0  0  0
    1.9233   -0.2854    0.0000 C   0  0  0  0  0  0  0  0  0  0  0  0
    2.6378    0.1271    0.0000 C   0  0  0  0  0  0  0  0  0  0  0  0
    3.3523   -0.2854    0.0000 C   0  0  0  0  0  0  0  0  0  0  0  0
    3.3523   -1.1104    0.0000 C   0  0  0  0  0  0  0  0  0  0  0  0
    2.6378   -1.5229    0.0000 C   0  0  0  0  0  0  0  0  0  0  0  0
    1.9233   -1.1104    0.0000 C   0  0  0  0  0  0  0  0  0  0  0  0
    1.1387   -1.3654    0.0000 O   0  0  0  0  0  0  0  0  0  0  0  0
  1  2  2  0  0  0  0
  2  3  1  0  0  0  0
  3  4  1  0  0  0  0
  4  5  1  0  0  0  0
  5  6  1  0  0  0  0
  6  7  1  0  0  0  0
  7  8  1  0  0  0  0
  8  9  4  0  0  0  0
  4  9  1  0  0  0  0
  9 10  4  0  0  0  0
 10 11  4  0  0  0  0
 11 12  4  0  0  0  0
  8 12  4  0  0  0  0
 12 13  1  0  0  0  0
 13 14  4  0  0  0  0
 14 15  4  0  0  0  0
 15 16  4  0  0  0  0
 16 17  4  0  0  0  0
 17 18  4  0  0  0  0
 13 18  4  0  0  0  0
 18 19  1  0  0  0  0
  2 20  1  0  0  0  0
 20 21  4  0  0  0  0
 21 22  4  0  0  0  0
 22 23  4  0  0  0  0
 23 24  4  0  0  0  0
 24 25  4  0  0  0  0
 25 26  4  0  0  0  0
 26 27  4  0  0  0  0
 22 27  4  0  0  0  0
 27 28  4  0  0  0  0
 20 28  4  0  0  0  0
M  END
> <IC50(uM)>
0.088

> <Outcome>
1.0

> <BindingDB ID>
993101

> <BindingDB MonomerID>
477603

> <BindingDB Ligand Name>
N-[(4R)-1-(2-fluorophenyl)-4,5,6,7-tetrahydro-1H-indazol-4-yl]-1,3-benzoxazole-2-carboxamide::US10889564, Example 33

> <Curation/DataSource>
US Patent

> <Article DOI>
?

> <PMID>
?

> <Patent Number>
US10889564

> <Authors>
Lain, S; Drummond, C; Leeuwen, IV; Haraldsson, M; Johansson, L; Sandberg, L; Yngve, U

> <Link to Ligand in BindingDB>
http://www.bindingdb.org/bind/chemsearch/marvin/MolStructure.jsp?monomerid=477603

> <Link to Ligand-Target Pair in BindingDB>
http://www.bindingdb.org/jsp/dbsearch/PrimarySearch_ki.jsp?energyterm=kJ/mole&tag=r21&monomerid=477603&enzyme=Dihydroorotate+dehydrogenase&column=ki&startPg=0&Increment=50&submit=Search

> <PubChem CID>
129104716

> <PubChem SID>
442137220

$$$$

  Mrv2115 07222212352D          

 22 24  0  0  0  0            999 V2000
    2.5785   -3.3694    0.0000 O   0  0  0  0  0  0  0  0  0  0  0  0
    3.2930   -2.9569    0.0000 C   0  0  0  0  0  0  0  0  0  0  0  0
    4.0075   -3.3694    0.0000 N   0  0  0  0  0  0  0  0  0  0  0  0
    4.0075   -4.1944    0.0000 C   0  0  0  0  0  0  0  0  0  0  0  0
    4.4200   -4.9089    0.0000 C   0  0  0  0  0  0  0  0  0  0  0  0
    3.5950   -4.9089    0.0000 C   0  0  0  0  0  0  0  0  0  0  0  0
    3.2930   -2.1319    0.0000 C   0  0  0  0  0  0  0  0  0  0  0  0
    2.6256   -1.6470    0.0000 C   0  0  0  0  0  0  0  0  0  0  0  0
    2.8805   -0.8624    0.0000 C   0  0  0  0  0  0  0  0  0  0  0  0
    2.3956   -0.1949    0.0000 C   0  0  0  0  0  0  0  0  0  0  0  0
    2.7311    0.5587    0.0000 C   0  0  0  0  0  0  0  0  0  0  0  0
    2.2462    1.2262    0.0000 C   0  0  0  0  0  0  0  0  0  0  0  0
    2.5818    1.9799    0.0000 C   0  0  0  0  0  0  0  0  0  0  0  0
    3.4023    2.0661    0.0000 C   0  0  0  0  0  0  0  0  0  0  0  0
    3.7378    2.8198    0.0000 C   0  0  0  0  0  0  0  0  0  0  0  0
    4.0734    3.5734    0.0000 F   0  0  0  0  0  0  0  0  0  0  0  0
    4.4915    2.4842    0.0000 F   0  0  0  0  0  0  0  0  0  0  0  0
    2.9841    3.1553    0.0000 F   0  0  0  0  0  0  0  0  0  0  0  0
    3.8872    1.3987    0.0000 N   0  0  0  0  0  0  0  0  0  0  0  0
    3.5516    0.6450    0.0000 C   0  0  0  0  0  0  0  0  0  0  0  0
    3.7055   -0.8624    0.0000 C   0  0  0  0  0  0  0  0  0  0  0  0
    3.9604   -1.6470    0.0000 N   0  0  0  0  0  0  0  0  0  0  0  0
  1  2  2  0  0  0  0
  2  3  1  0  0  0  0
  3  4  1  0  0  0  0
  4  5  1  0  0  0  0
  5  6  1  0  0  0  0
  4  6  1  0  0  0  0
  2  7  1  0  0  0  0
  7  8  4  0  0  0  0
  8  9  4  0  0  0  0
  9 10  1  0  0  0  0
 10 11  1  0  0  0  0
 11 12  4  0  0  0  0
 12 13  4  0  0  0  0
 13 14  4  0  0  0  0
 14 15  1  0  0  0  0
 15 16  1  0  0  0  0
 15 17  1  0  0  0  0
 15 18  1  0  0  0  0
 14 19  4  0  0  0  0
 19 20  4  0  0  0  0
 11 20  4  0  0  0  0
  9 21  4  0  0  0  0
 21 22  4  0  0  0  0
  7 22  4  0  0  0  0
M  STY  1   1 DAT
M  SAL   1  1  22
M  SDT   1 MRV_IMPLICIT_H                                        
M  SDD   1     0.5304   -0.4125    DR    ALL  0       0  
M  SED   1 IMPL_H1
M  END
> <IC50(uM)>
100.0

> <Outcome>
0.0

> <BindingDB ID>
51330094

> <BindingDB MonomerID>
50538342

> <BindingDB Ligand Name>
CHEMBL4633302

> <Curation/DataSource>
ChEMBL

> <Article DOI>
10.1021/acs.jmedchem.0c00311

> <PMID>
32248693

> <Patent Number>
?

> <Authors>
Kokkonda, S; Deng, X; White, KL; El Mazouni, F; White, J; Shackleford, DM; Katneni, K; Chiu, FCK; Barker, H; McLaren, J; Crighton, E; Chen, G; Angulo-Barturen, I; Jimenez-Diaz, MB; Ferrer, S; Huertas-Valentin, L; Martinez-Martinez, MS; Lafuente-Monasterio, MJ; Chittimalla, R; Shahi, SP; Wittlin, S; Waterson, D; Burrows, JN; Matthews, D; Tomchick, D; Rathod, PK; Palmer, MJ; Charman, SA; Phillips, MA

> <Link to Ligand in BindingDB>
http://www.bindingdb.org/bind/chemsearch/marvin/MolStructure.jsp?monomerid=50538342

> <Link to Ligand-Target Pair in BindingDB>
http://www.bindingdb.org/jsp/dbsearch/PrimarySearch_ki.jsp?energyterm=kJ/mole&tag=r21&monomerid=50538342&enzyme=Dihydroorotate+dehydrogenase&column=ki&startPg=0&Increment=50&submit=Search

> <PubChem CID>
156010501

> <PubChem SID>
442139905

$$$$

  Mrv2115 07222212352D          

 18 19  0  0  0  0            999 V2000
    1.3222   -0.0616    0.0000 C   0  0  0  0  0  0  0  0  0  0  0  0
    2.0367   -0.4741    0.0000 C   0  0  0  0  0  0  0  0  0  0  0  0
    2.7512   -0.0616    0.0000 O   0  0  0  0  0  0  0  0  0  0  0  0
    2.0367   -1.2991    0.0000 C   0  0  0  0  0  0  0  0  0  0  0  0
    2.7041   -1.7840    0.0000 S   0  0  0  0  0  0  0  0  0  0  0  0
    2.4492   -2.5687    0.0000 C   0  0  0  0  0  0  0  0  0  0  0  0
    2.9341   -3.2361    0.0000 N   0  0  0  0  0  0  0  0  0  0  0  0
    2.5986   -3.9898    0.0000 C   0  0  0  0  0  0  0  0  0  0  0  0
    3.0835   -4.6572    0.0000 C   0  0  0  0  0  0  0  0  0  0  0  0
    2.7479   -5.4109    0.0000 C   0  0  0  0  0  0  0  0  0  0  0  0
    1.9275   -5.4971    0.0000 C   0  0  0  0  0  0  0  0  0  0  0  0
    1.5919   -6.2508    0.0000 C   0  0  0  0  0  0  0  0  0  0  0  0
    1.4425   -4.8297    0.0000 C   0  0  0  0  0  0  0  0  0  0  0  0
    0.6221   -4.9159    0.0000 F   0  0  0  0  0  0  0  0  0  0  0  0
    1.7781   -4.0760    0.0000 C   0  0  0  0  0  0  0  0  0  0  0  0
    1.6242   -2.5687    0.0000 N   0  0  0  0  0  0  0  0  0  0  0  0
    1.3693   -1.7840    0.0000 C   0  0  0  0  0  0  0  0  0  0  0  0
    0.5846   -1.5291    0.0000 C   0  0  0  0  0  0  0  0  0  0  0  0
  1  2  1  0  0  0  0
  2  3  2  0  0  0  0
  2  4  1  0  0  0  0
  4  5  4  0  0  0  0
  5  6  4  0  0  0  0
  6  7  1  0  0  0  0
  7  8  1  0  0  0  0
  8  9  4  0  0  0  0
  9 10  4  0  0  0  0
 10 11  4  0  0  0  0
 11 12  1  0  0  0  0
 11 13  4  0  0  0  0
 13 14  1  0  0  0  0
 13 15  4  0  0  0  0
  8 15  4  0  0  0  0
  6 16  4  0  0  0  0
 16 17  4  0  0  0  0
  4 17  4  0  0  0  0
 17 18  1  0  0  0  0
M  END
> <IC50(uM)>
10.0

> <Outcome>
0.0

> <BindingDB ID>
50312479

> <BindingDB MonomerID>
50071791

> <BindingDB Ligand Name>
CHEMBL3410573

> <Curation/DataSource>
ChEMBL

> <Article DOI>
10.1021/jm501127s

> <PMID>
25580811

> <Patent Number>
?

> <Authors>
Zhu, J; Han, L; Diao, Y; Ren, X; Xu, M; Xu, L; Li, S; Li, Q; Dong, D; Huang, J; Liu, X; Zhao, Z; Wang, R; Zhu, L; Xu, Y; Qian, X; Li, H

> <Link to Ligand in BindingDB>
http://www.bindingdb.org/bind/chemsearch/marvin/MolStructure.jsp?monomerid=50071791

> <Link to Ligand-Target Pair in BindingDB>
http://www.bindingdb.org/jsp/dbsearch/PrimarySearch_ki.jsp?energyterm=kJ/mole&tag=r21&monomerid=50071791&enzyme=Dihydroorotate+dehydrogenase&column=ki&startPg=0&Increment=50&submit=Search

> <PubChem CID>
9173919

> <PubChem SID>
103965501

$$$$

  Mrv2115 07222212352D          

 21 24  0  0  0  0            999 V2000
    0.9130   -0.8764    0.0000 N   0  0  0  0  0  0  0  0  0  0  0  0
    1.7200   -1.0479    0.0000 C   0  0  0  0  0  0  0  0  0  0  0  0
    2.2720   -0.4349    0.0000 N   0  0  0  0  0  0  0  0  0  0  0  0
    3.0790   -0.6064    0.0000 C   0  0  0  0  0  0  0  0  0  0  0  0
    3.7464   -0.1215    0.0000 C   0  0  0  0  0  0  0  0  0  0  0  0
    4.4139   -0.6064    0.0000 C   0  0  0  0  0  0  0  0  0  0  0  0
    5.2208   -0.4349    0.0000 C   0  0  0  0  0  0  0  0  0  0  0  0
    5.7729   -1.0479    0.0000 C   0  0  0  0  0  0  0  0  0  0  0  0
    5.5179   -1.8326    0.0000 C   0  0  0  0  0  0  0  0  0  0  0  0
    4.7110   -2.0041    0.0000 C   0  0  0  0  0  0  0  0  0  0  0  0
    4.1589   -1.3910    0.0000 C   0  0  0  0  0  0  0  0  0  0  0  0
    3.3339   -1.3910    0.0000 C   0  0  0  0  0  0  0  0  0  0  0  0
    2.7819   -2.0041    0.0000 C   0  0  0  0  0  0  0  0  0  0  0  0
    3.0368   -2.7887    0.0000 N   0  0  0  0  0  0  0  0  0  0  0  0
    2.4848   -3.4018    0.0000 C   0  0  0  0  0  0  0  0  0  0  0  0
    2.7397   -4.1864    0.0000 C   0  0  0  0  0  0  0  0  0  0  0  0
    2.1877   -4.7995    0.0000 C   0  0  0  0  0  0  0  0  0  0  0  0
    1.3807   -4.6280    0.0000 C   0  0  0  0  0  0  0  0  0  0  0  0
    1.1258   -3.8434    0.0000 C   0  0  0  0  0  0  0  0  0  0  0  0
    1.6778   -3.2303    0.0000 C   0  0  0  0  0  0  0  0  0  0  0  0
    1.9749   -1.8326    0.0000 N   0  0  0  0  0  0  0  0  0  0  0  0
  1  2  1  0  0  0  0
  2  3  4  0  0  0  0
  3  4  4  0  0  0  0
  4  5  4  0  0  0  0
  5  6  4  0  0  0  0
  6  7  4  0  0  0  0
  7  8  4  0  0  0  0
  8  9  4  0  0  0  0
  9 10  4  0  0  0  0
 10 11  4  0  0  0  0
  6 11  4  0  0  0  0
 11 12  4  0  0  0  0
  4 12  1  0  0  0  0
 12 13  4  0  0  0  0
 13 14  1  0  0  0  0
 14 15  1  0  0  0  0
 15 16  4  0  0  0  0
 16 17  4  0  0  0  0
 17 18  4  0  0  0  0
 18 19  4  0  0  0  0
 19 20  4  0  0  0  0
 15 20  4  0  0  0  0
 13 21  4  0  0  0  0
  2 21  4  0  0  0  0
M  STY  1   1 DAT
M  SAL   1  1  21
M  SDT   1 MRV_IMPLICIT_H                                        
M  SDD   1     0.5304   -0.4125    DR    ALL  0       0  
M  SED   1 IMPL_H1
M  END
> <IC50(uM)>
200.0

> <Outcome>
0.0

> <BindingDB ID>
50944650

> <BindingDB MonomerID>
50387408

> <BindingDB Ligand Name>
CHEMBL2047243

> <Curation/DataSource>
ChEMBL

> <Article DOI>
10.1016/j.bmc.2012.05.068

> <PMID>
22739090

> <Patent Number>
?

> <Authors>
Gangjee, A; Zhao, Y; Ihnat, MA; Thorpe, JE; Bailey-Downs, LC; Kisliuk, RL

> <Link to Ligand in BindingDB>
http://www.bindingdb.org/bind/chemsearch/marvin/MolStructure.jsp?monomerid=50387408

> <Link to Ligand-Target Pair in BindingDB>
http://www.bindingdb.org/jsp/dbsearch/PrimarySearch_ki.jsp?energyterm=kJ/mole&tag=r21&monomerid=50387408&enzyme=Dihydroorotate+dehydrogenase&column=ki&startPg=0&Increment=50&submit=Search

> <PubChem CID>
91203130

> <PubChem SID>
160866491

$$$$

  Mrv2115 07222212352D          

 25 28  0  0  0  0            999 V2000
    3.9934    2.4750    0.0000 O   0  0  0  0  0  0  0  0  0  0  0  0
    3.2789    2.0625    0.0000 C   0  0  0  0  0  0  0  0  0  0  0  0
    2.5645    2.4750    0.0000 O   0  0  0  0  0  0  0  0  0  0  0  0
    3.2789    1.2375    0.0000 C   0  0  0  0  0  0  0  0  0  0  0  0
    3.9934    0.8250    0.0000 C   0  0  0  0  0  0  0  0  0  0  0  0
    3.9934    0.0000    0.0000 C   0  0  0  0  0  0  0  0  0  0  0  0
    4.7079   -0.4125    0.0000 Cl  0  0  0  0  0  0  0  0  0  0  0  0
    3.2789   -0.4125    0.0000 C   0  0  0  0  0  0  0  0  0  0  0  0
    2.5645    0.0000    0.0000 C   0  0  0  0  0  0  0  0  0  0  0  0
    1.7798   -0.2549    0.0000 N   0  0  0  0  0  0  0  0  0  0  0  0
    1.2949    0.4125    0.0000 C   0  0  0  0  0  0  0  0  0  0  0  0
    0.4699    0.4125    0.0000 C   0  0  0  0  0  0  0  0  0  0  0  0
    0.0574   -0.3020    0.0000 C   0  0  0  0  0  0  0  0  0  0  0  0
   -0.7676   -0.3020    0.0000 C   0  0  0  0  0  0  0  0  0  0  0  0
   -1.1801    0.4125    0.0000 C   0  0  0  0  0  0  0  0  0  0  0  0
   -2.0051    0.4125    0.0000 C   0  0  0  0  0  0  0  0  0  0  0  0
   -2.4176   -0.3020    0.0000 C   0  0  0  0  0  0  0  0  0  0  0  0
   -3.2426   -0.3020    0.0000 C   0  0  0  0  0  0  0  0  0  0  0  0
   -3.6551    0.4125    0.0000 C   0  0  0  0  0  0  0  0  0  0  0  0
   -3.2426    1.1270    0.0000 C   0  0  0  0  0  0  0  0  0  0  0  0
   -2.4176    1.1270    0.0000 C   0  0  0  0  0  0  0  0  0  0  0  0
   -0.7676    1.1270    0.0000 C   0  0  0  0  0  0  0  0  0  0  0  0
    0.0574    1.1270    0.0000 C   0  0  0  0  0  0  0  0  0  0  0  0
    1.7798    1.0799    0.0000 N   0  0  0  0  0  0  0  0  0  0  0  0
    2.5645    0.8250    0.0000 C   0  0  0  0  0  0  0  0  0  0  0  0
  1  2  2  0  0  0  0
  2  3  1  0  0  0  0
  2  4  1  0  0  0  0
  4  5  4  0  0  0  0
  5  6  4  0  0  0  0
  6  7  1  0  0  0  0
  6  8  4  0  0  0  0
  8  9  4  0  0  0  0
  9 10  4  0  0  0  0
 10 11  4  0  0  0  0
 11 12  1  0  0  0  0
 12 13  4  0  0  0  0
 13 14  4  0  0  0  0
 14 15  4  0  0  0  0
 15 16  1  0  0  0  0
 16 17  4  0  0  0  0
 17 18  4  0  0  0  0
 18 19  4  0  0  0  0
 19 20  4  0  0  0  0
 20 21  4  0  0  0  0
 16 21  4  0  0  0  0
 15 22  4  0  0  0  0
 22 23  4  0  0  0  0
 12 23  4  0  0  0  0
 11 24  4  0  0  0  0
 24 25  4  0  0  0  0
  4 25  4  0  0  0  0
  9 25  4  0  0  0  0
M  STY  1   1 DAT
M  SAL   1  1  24
M  SDT   1 MRV_IMPLICIT_H                                        
M  SDD   1     0.5304   -0.4125    DR    ALL  0       0  
M  SED   1 IMPL_H1
M  END
> <IC50(uM)>
0.994

> <Outcome>
1.0

> <BindingDB ID>
297764

> <BindingDB MonomerID>
155420

> <BindingDB Ligand Name>
US9006454, I35

> <Curation/DataSource>
US Patent

> <Article DOI>
?

> <PMID>
?

> <Patent Number>
US9006454

> <Authors>
Thunuguntla, SS; Subramanya, H; Kunnam, SR; Sanivaru Vijay, SR; Bingi, C; Kusanur, R; Schwarz, M; Arlt, M

> <Link to Ligand in BindingDB>
http://www.bindingdb.org/bind/chemsearch/marvin/MolStructure.jsp?monomerid=155420

> <Link to Ligand-Target Pair in BindingDB>
http://www.bindingdb.org/jsp/dbsearch/PrimarySearch_ki.jsp?energyterm=kJ/mole&tag=r21&monomerid=155420&enzyme=Dihydroorotate+dehydrogenase&column=ki&startPg=0&Increment=50&submit=Search

> <PubChem CID>
46946379

> <PubChem SID>
253658357

$$$$

  Mrv2115 07222212352D          

 25 27  0  0  0  0            999 V2000
   -0.7145    1.2375    0.0000 C   0  0  0  0  0  0  0  0  0  0  0  0
    0.0000    0.8250    0.0000 C   0  0  0  0  0  0  0  0  0  0  0  0
    0.0000   -0.0000    0.0000 O   0  0  0  0  0  0  0  0  0  0  0  0
    0.7145   -0.4125    0.0000 C   0  0  0  0  0  0  0  0  0  0  0  0
    1.4289   -0.0000    0.0000 O   0  0  0  0  0  0  0  0  0  0  0  0
    0.7145   -1.2375    0.0000 C   0  0  0  0  0  0  0  0  0  0  0  0
    1.3819   -1.7224    0.0000 S   0  0  0  0  0  0  0  0  0  0  0  0
    1.1270   -2.5070    0.0000 C   0  0  0  0  0  0  0  0  0  0  0  0
    1.6119   -3.1745    0.0000 N   0  0  0  0  0  0  0  0  0  0  0  0
    1.2763   -3.9282    0.0000 C   0  0  0  0  0  0  0  0  0  0  0  0
    1.7613   -4.5956    0.0000 C   0  0  0  0  0  0  0  0  0  0  0  0
    1.4257   -5.3493    0.0000 C   0  0  0  0  0  0  0  0  0  0  0  0
    1.9106   -6.0167    0.0000 Cl  0  0  0  0  0  0  0  0  0  0  0  0
    0.6052   -5.4355    0.0000 C   0  0  0  0  0  0  0  0  0  0  0  0
    0.1203   -4.7681    0.0000 C   0  0  0  0  0  0  0  0  0  0  0  0
   -0.7002   -4.8543    0.0000 Cl  0  0  0  0  0  0  0  0  0  0  0  0
    0.4559   -4.0144    0.0000 C   0  0  0  0  0  0  0  0  0  0  0  0
    0.3020   -2.5070    0.0000 N   0  0  0  0  0  0  0  0  0  0  0  0
    0.0470   -1.7224    0.0000 C   0  0  0  0  0  0  0  0  0  0  0  0
   -0.7376   -1.4675    0.0000 C   0  0  0  0  0  0  0  0  0  0  0  0
   -1.3507   -2.0195    0.0000 C   0  0  0  0  0  0  0  0  0  0  0  0
   -2.1353   -1.7646    0.0000 C   0  0  0  0  0  0  0  0  0  0  0  0
   -2.3068   -0.9576    0.0000 C   0  0  0  0  0  0  0  0  0  0  0  0
   -1.6937   -0.4056    0.0000 C   0  0  0  0  0  0  0  0  0  0  0  0
   -0.9091   -0.6605    0.0000 C   0  0  0  0  0  0  0  0  0  0  0  0
  1  2  1  0  0  0  0
  2  3  1  0  0  0  0
  3  4  1  0  0  0  0
  4  5  2  0  0  0  0
  4  6  1  0  0  0  0
  6  7  4  0  0  0  0
  7  8  4  0  0  0  0
  8  9  1  0  0  0  0
  9 10  1  0  0  0  0
 10 11  4  0  0  0  0
 11 12  4  0  0  0  0
 12 13  1  0  0  0  0
 12 14  4  0  0  0  0
 14 15  4  0  0  0  0
 15 16  1  0  0  0  0
 15 17  4  0  0  0  0
 10 17  4  0  0  0  0
  8 18  4  0  0  0  0
 18 19  4  0  0  0  0
  6 19  4  0  0  0  0
 19 20  1  0  0  0  0
 20 21  4  0  0  0  0
 21 22  4  0  0  0  0
 22 23  4  0  0  0  0
 23 24  4  0  0  0  0
 24 25  4  0  0  0  0
 20 25  4  0  0  0  0
M  END
> <IC50(uM)>
0.393

> <Outcome>
1.0

> <BindingDB ID>
50312260

> <BindingDB MonomerID>
50071598

> <BindingDB Ligand Name>
CHEMBL3410605

> <Curation/DataSource>
ChEMBL

> <Article DOI>
10.1021/jm501127s

> <PMID>
25580811

> <Patent Number>
?

> <Authors>
Zhu, J; Han, L; Diao, Y; Ren, X; Xu, M; Xu, L; Li, S; Li, Q; Dong, D; Huang, J; Liu, X; Zhao, Z; Wang, R; Zhu, L; Xu, Y; Qian, X; Li, H

> <Link to Ligand in BindingDB>
http://www.bindingdb.org/bind/chemsearch/marvin/MolStructure.jsp?monomerid=50071598

> <Link to Ligand-Target Pair in BindingDB>
http://www.bindingdb.org/jsp/dbsearch/PrimarySearch_ki.jsp?energyterm=kJ/mole&tag=r21&monomerid=50071598&enzyme=Dihydroorotate+dehydrogenase&column=ki&startPg=0&Increment=50&submit=Search

> <PubChem CID>
118732516

> <PubChem SID>
313072545

$$$$

  Mrv2115 07222212352D          

 35 37  0  0  0  0            999 V2000
    0.0000   -4.1250    0.0000 C   0  0  0  0  0  0  0  0  0  0  0  0
    0.0000   -4.9500    0.0000 C   0  0  0  0  0  0  0  0  0  0  0  0
   -0.6674   -5.4349    0.0000 C   0  0  0  0  0  0  0  0  0  0  0  0
   -0.4125   -6.2195    0.0000 N   0  0  0  0  0  0  0  0  0  0  0  0
   -0.8974   -6.8870    0.0000 C   0  0  0  0  0  0  0  0  0  0  0  0
   -0.5619   -7.6407    0.0000 C   0  0  0  0  0  0  0  0  0  0  0  0
   -1.0468   -8.3081    0.0000 C   0  0  0  0  0  0  0  0  0  0  0  0
   -0.7112   -9.0618    0.0000 O   0  0  0  0  0  0  0  0  0  0  0  0
    0.1093   -9.1480    0.0000 C   0  0  0  0  0  0  0  0  0  0  0  0
    0.5942   -8.4806    0.0000 C   0  0  0  0  0  0  0  0  0  0  0  0
    0.4448   -9.9017    0.0000 C   0  0  0  0  0  0  0  0  0  0  0  0
   -0.3089  -10.2372    0.0000 F   0  0  0  0  0  0  0  0  0  0  0  0
    1.1985   -9.5661    0.0000 F   0  0  0  0  0  0  0  0  0  0  0  0
    0.7804  -10.6554    0.0000 F   0  0  0  0  0  0  0  0  0  0  0  0
   -1.8673   -8.2219    0.0000 C   0  0  0  0  0  0  0  0  0  0  0  0
   -2.3522   -8.8893    0.0000 C   0  0  0  0  0  0  0  0  0  0  0  0
   -2.0166   -9.6430    0.0000 O   0  0  0  0  0  0  0  0  0  0  0  0
   -3.1727   -8.8031    0.0000 N   0  0  0  0  0  0  0  0  0  0  0  0
   -3.6576   -9.4705    0.0000 C   0  0  0  0  0  0  0  0  0  0  0  0
   -3.3220  -10.2242    0.0000 C   0  0  0  0  0  0  0  0  0  0  0  0
   -2.5016  -10.3104    0.0000 F   0  0  0  0  0  0  0  0  0  0  0  0
   -3.8070  -10.8916    0.0000 C   0  0  0  0  0  0  0  0  0  0  0  0
   -4.6274  -10.8054    0.0000 C   0  0  0  0  0  0  0  0  0  0  0  0
   -4.9630  -10.0517    0.0000 C   0  0  0  0  0  0  0  0  0  0  0  0
   -4.4781   -9.3843    0.0000 C   0  0  0  0  0  0  0  0  0  0  0  0
   -4.8136   -8.6306    0.0000 Cl  0  0  0  0  0  0  0  0  0  0  0  0
   -2.2028   -7.4682    0.0000 C   0  0  0  0  0  0  0  0  0  0  0  0
   -1.7179   -6.8007    0.0000 C   0  0  0  0  0  0  0  0  0  0  0  0
   -2.0535   -6.0471    0.0000 F   0  0  0  0  0  0  0  0  0  0  0  0
    0.4125   -6.2195    0.0000 N   0  0  0  0  0  0  0  0  0  0  0  0
    0.6674   -5.4349    0.0000 C   0  0  0  0  0  0  0  0  0  0  0  0
    1.4521   -5.1800    0.0000 C   0  0  0  0  0  0  0  0  0  0  0  0
    1.1971   -4.3954    0.0000 C   0  0  0  0  0  0  0  0  0  0  0  0
    2.2367   -4.9250    0.0000 C   0  0  0  0  0  0  0  0  0  0  0  0
    1.7070   -5.9646    0.0000 O   0  0  0  0  0  0  0  0  0  0  0  0
  1  2  1  0  0  0  0
  2  3  4  0  0  0  0
  3  4  4  0  0  0  0
  4  5  1  0  0  0  0
  5  6  4  0  0  0  0
  6  7  4  0  0  0  0
  7  8  1  0  0  0  0
  8  9  1  0  0  0  0
  9 10  1  0  0  0  0
  9 11  1  0  0  0  0
 11 12  1  0  0  0  0
 11 13  1  0  0  0  0
 11 14  1  0  0  0  0
  7 15  4  0  0  0  0
 15 16  1  0  0  0  0
 16 17  2  0  0  0  0
 16 18  1  0  0  0  0
 18 19  1  0  0  0  0
 19 20  4  0  0  0  0
 20 21  1  0  0  0  0
 20 22  4  0  0  0  0
 22 23  4  0  0  0  0
 23 24  4  0  0  0  0
 24 25  4  0  0  0  0
 19 25  4  0  0  0  0
 25 26  1  0  0  0  0
 15 27  4  0  0  0  0
 27 28  4  0  0  0  0
  5 28  4  0  0  0  0
 28 29  1  0  0  0  0
  4 30  4  0  0  0  0
 30 31  4  0  0  0  0
  2 31  4  0  0  0  0
 31 32  1  0  0  0  0
 32 33  1  0  0  0  0
 32 34  1  0  0  0  0
 32 35  1  0  0  0  0
M  END
> <IC50(uM)>
5.0E-4

> <Outcome>
1.0

> <BindingDB ID>
1121394

> <BindingDB MonomerID>
530460

> <BindingDB Ligand Name>
(S)-N-(2-Chloro-6-fluorophenyl)-5-fluoro-4-(3-(2-hydroxypropan-2-yl)-4-methyl-1H-pyrazol-1-yl)-2-((1,1,1-trifluoropropan-2-yl)oxy)benzamide::WO2022070069, Example 3

> <Curation/DataSource>
Curated from the literature by BindingDB

> <Article DOI>
?

> <PMID>
WO2022070069

> <Patent Number>
?

> <Authors>
Lindsey, D; Scott, K

> <Link to Ligand in BindingDB>
http://www.bindingdb.org/bind/chemsearch/marvin/MolStructure.jsp?monomerid=530460

> <Link to Ligand-Target Pair in BindingDB>
http://www.bindingdb.org/jsp/dbsearch/PrimarySearch_ki.jsp?energyterm=kJ/mole&tag=r21&monomerid=530460&enzyme=Dihydroorotate+dehydrogenase&column=ki&startPg=0&Increment=50&submit=Search

> <PubChem CID>
?

> <PubChem SID>
?

$$$$

  Mrv2115 07222212352D          

 35 38  0  0  0  0            999 V2000
   -0.6284    2.1599    0.0000 C   0  0  0  0  0  0  0  0  0  0  0  0
   -1.4534    2.1599    0.0000 C   0  0  0  0  0  0  0  0  0  0  0  0
   -1.8659    1.4455    0.0000 C   0  0  0  0  0  0  0  0  0  0  0  0
   -2.6909    1.4455    0.0000 C   0  0  0  0  0  0  0  0  0  0  0  0
   -3.1034    2.1599    0.0000 C   0  0  0  0  0  0  0  0  0  0  0  0
   -3.1034    0.7310    0.0000 O   0  0  0  0  0  0  0  0  0  0  0  0
   -2.6909    0.0165    0.0000 C   0  0  0  0  0  0  0  0  0  0  0  0
   -1.8659    0.0165    0.0000 C   0  0  0  0  0  0  0  0  0  0  0  0
   -1.4534   -0.6979    0.0000 C   0  0  0  0  0  0  0  0  0  0  0  0
   -0.6284   -0.6979    0.0000 N   0  0  0  0  0  0  0  0  0  0  0  0
   -0.1435   -1.3654    0.0000 N   0  0  0  0  0  0  0  0  0  0  0  0
    0.6411   -1.1104    0.0000 C   0  0  0  0  0  0  0  0  0  0  0  0
    0.6411   -0.2854    0.0000 N   0  0  0  0  0  0  0  0  0  0  0  0
   -0.1435   -0.0305    0.0000 C   0  0  0  0  0  0  0  0  0  0  0  0
   -0.3984    0.7541    0.0000 O   0  0  0  0  0  0  0  0  0  0  0  0
    1.3556    0.1271    0.0000 C   0  0  0  0  0  0  0  0  0  0  0  0
    2.0701   -0.2854    0.0000 C   0  0  0  0  0  0  0  0  0  0  0  0
    2.0701   -1.1104    0.0000 C   0  0  0  0  0  0  0  0  0  0  0  0
    1.3556   -1.5229    0.0000 C   0  0  0  0  0  0  0  0  0  0  0  0
   -1.8659   -1.4124    0.0000 C   0  0  0  0  0  0  0  0  0  0  0  0
   -1.4534   -2.1269    0.0000 F   0  0  0  0  0  0  0  0  0  0  0  0
   -2.6909   -1.4124    0.0000 C   0  0  0  0  0  0  0  0  0  0  0  0
   -3.1034   -0.6979    0.0000 C   0  0  0  0  0  0  0  0  0  0  0  0
   -3.9284   -0.6979    0.0000 C   0  0  0  0  0  0  0  0  0  0  0  0
   -4.3409    0.0165    0.0000 O   0  0  0  0  0  0  0  0  0  0  0  0
   -4.3409   -1.4124    0.0000 N   0  0  0  0  0  0  0  0  0  0  0  0
   -3.9284   -2.1269    0.0000 C   0  0  0  0  0  0  0  0  0  0  0  0
   -3.1034   -2.1269    0.0000 C   0  0  0  0  0  0  0  0  0  0  0  0
   -2.6909   -2.8414    0.0000 C   0  0  0  0  0  0  0  0  0  0  0  0
   -3.1034   -3.5558    0.0000 C   0  0  0  0  0  0  0  0  0  0  0  0
   -3.9284   -3.5558    0.0000 C   0  0  0  0  0  0  0  0  0  0  0  0
   -4.3409   -2.8414    0.0000 C   0  0  0  0  0  0  0  0  0  0  0  0
   -5.1659   -2.8414    0.0000 C   0  0  0  0  0  0  0  0  0  0  0  0
   -5.5784   -2.1269    0.0000 F   0  0  0  0  0  0  0  0  0  0  0  0
   -5.5784   -3.5558    0.0000 F   0  0  0  0  0  0  0  0  0  0  0  0
  1  2  1  0  0  0  0
  2  3  1  0  0  0  0
  3  4  1  0  0  0  0
  4  5  1  0  0  0  0
  4  6  1  0  0  0  0
  6  7  1  0  0  0  0
  7  8  4  0  0  0  0
  8  9  4  0  0  0  0
  9 10  1  0  0  0  0
 10 11  4  0  0  0  0
 11 12  4  0  0  0  0
 12 13  4  0  0  0  0
 13 14  4  0  0  0  0
 10 14  4  0  0  0  0
 14 15  2  0  0  0  0
 13 16  1  0  0  0  0
 16 17  1  0  0  0  0
 17 18  1  0  0  0  0
 18 19  1  0  0  0  0
 12 19  1  0  0  0  0
  9 20  4  0  0  0  0
 20 21  1  0  0  0  0
 20 22  4  0  0  0  0
 22 23  4  0  0  0  0
  7 23  4  0  0  0  0
 23 24  1  0  0  0  0
 24 25  2  0  0  0  0
 24 26  1  0  0  0  0
 26 27  1  0  0  0  0
 27 28  4  0  0  0  0
 28 29  4  0  0  0  0
 29 30  4  0  0  0  0
 30 31  4  0  0  0  0
 31 32  4  0  0  0  0
 27 32  4  0  0  0  0
 32 33  1  0  0  0  0
 33 34  1  0  0  0  0
 33 35  1  0  0  0  0
M  END
> <IC50(uM)>
0.0050999999999999995

> <Outcome>
1.0

> <BindingDB ID>
1020392

> <BindingDB MonomerID>
490348

> <BindingDB Ligand Name>
N-[2-(difluoromethyl)phenyl]-5-fluoro-4-(3-oxo-5,6,7,8-tetrahydro[1,2,4]triazolo[4,3-a]pyridin-2(3H)-yl)-2-[(2S)-pentan-2-yloxy]benzamide::US10968216, Example 16

> <Curation/DataSource>
US Patent

> <Article DOI>
?

> <PMID>
?

> <Patent Number>
US10968216

> <Authors>
Gradl, SN; Nguyen, D; Eis, K; Gunther, J; Stellfeld, T; Janzer, A; Christian, S; Mueller, T; Sheikh, SE; Zhou, HJ; Zhao, C; Sykes, DB; Ferrara, SJ; Liu, K; Herbert, SA; Merz, C; Niehues, M; Nising, CF; Schafer, M; Zimmermann, K; Knablein, J; Thede, K; Faupel, T

> <Link to Ligand in BindingDB>
http://www.bindingdb.org/bind/chemsearch/marvin/MolStructure.jsp?monomerid=490348

> <Link to Ligand-Target Pair in BindingDB>
http://www.bindingdb.org/jsp/dbsearch/PrimarySearch_ki.jsp?energyterm=kJ/mole&tag=r21&monomerid=490348&enzyme=Dihydroorotate+dehydrogenase&column=ki&startPg=0&Increment=50&submit=Search

> <PubChem CID>
134473867

> <PubChem SID>
447117075

$$$$

  Mrv2115 07222212352D          

 31 33  0  0  0  0            999 V2000
   -0.7145   -3.7125    0.0000 O   0  0  0  0  0  0  0  0  0  0  0  0
    0.0000   -4.1250    0.0000 C   0  0  0  0  0  0  0  0  0  0  0  0
    0.7145   -3.7125    0.0000 O   0  0  0  0  0  0  0  0  0  0  0  0
    0.0000   -4.9500    0.0000 C   0  0  0  0  0  0  0  0  0  0  0  0
    0.6674   -5.4349    0.0000 C   0  0  0  0  0  0  0  0  0  0  0  0
    1.4521   -5.1800    0.0000 C   0  0  0  0  0  0  0  0  0  0  0  0
    1.6236   -4.3730    0.0000 O   0  0  0  0  0  0  0  0  0  0  0  0
    2.0652   -5.7320    0.0000 N   0  0  0  0  0  0  0  0  0  0  0  0
    2.8498   -5.4771    0.0000 C   0  0  0  0  0  0  0  0  0  0  0  0
    3.0213   -4.6701    0.0000 C   0  0  0  0  0  0  0  0  0  0  0  0
    3.8059   -4.4152    0.0000 C   0  0  0  0  0  0  0  0  0  0  0  0
    4.4190   -4.9672    0.0000 C   0  0  0  0  0  0  0  0  0  0  0  0
    5.2036   -4.7123    0.0000 C   0  0  0  0  0  0  0  0  0  0  0  0
    5.3752   -3.9053    0.0000 C   0  0  0  0  0  0  0  0  0  0  0  0
    6.1598   -3.6503    0.0000 C   0  0  0  0  0  0  0  0  0  0  0  0
    6.7729   -4.2024    0.0000 C   0  0  0  0  0  0  0  0  0  0  0  0
    6.6014   -5.0094    0.0000 C   0  0  0  0  0  0  0  0  0  0  0  0
    7.2145   -5.5614    0.0000 O   0  0  0  0  0  0  0  0  0  0  0  0
    7.9991   -5.3064    0.0000 C   0  0  0  0  0  0  0  0  0  0  0  0
    8.7837   -5.0515    0.0000 F   0  0  0  0  0  0  0  0  0  0  0  0
    8.2540   -6.0911    0.0000 F   0  0  0  0  0  0  0  0  0  0  0  0
    7.7441   -4.5218    0.0000 F   0  0  0  0  0  0  0  0  0  0  0  0
    5.8167   -5.2643    0.0000 C   0  0  0  0  0  0  0  0  0  0  0  0
    4.2475   -5.7742    0.0000 C   0  0  0  0  0  0  0  0  0  0  0  0
    3.4629   -6.0291    0.0000 C   0  0  0  0  0  0  0  0  0  0  0  0
    3.2913   -6.8361    0.0000 N   0  3  0  0  0  0  0  0  0  0  0  0
    2.5067   -7.0910    0.0000 O   0  0  0  0  0  0  0  0  0  0  0  0
    3.9044   -7.3881    0.0000 O   0  5  0  0  0  0  0  0  0  0  0  0
    0.4125   -6.2195    0.0000 C   0  0  0  0  0  0  0  0  0  0  0  0
   -0.4125   -6.2195    0.0000 C   0  0  0  0  0  0  0  0  0  0  0  0
   -0.6674   -5.4349    0.0000 C   0  0  0  0  0  0  0  0  0  0  0  0
  1  2  2  0  0  0  0
  2  3  1  0  0  0  0
  2  4  1  0  0  0  0
  4  5  2  0  0  0  0
  5  6  1  0  0  0  0
  6  7  2  0  0  0  0
  6  8  1  0  0  0  0
  8  9  1  0  0  0  0
  9 10  4  0  0  0  0
 10 11  4  0  0  0  0
 11 12  4  0  0  0  0
 12 13  1  0  0  0  0
 13 14  4  0  0  0  0
 14 15  4  0  0  0  0
 15 16  4  0  0  0  0
 16 17  4  0  0  0  0
 17 18  1  0  0  0  0
 18 19  1  0  0  0  0
 19 20  1  0  0  0  0
 19 21  1  0  0  0  0
 19 22  1  0  0  0  0
 17 23  4  0  0  0  0
 13 23  4  0  0  0  0
 12 24  4  0  0  0  0
 24 25  4  0  0  0  0
  9 25  4  0  0  0  0
 25 26  1  0  0  0  0
 26 27  2  0  0  0  0
 26 28  1  0  0  0  0
  5 29  1  0  0  0  0
 29 30  1  0  0  0  0
 30 31  1  0  0  0  0
  4 31  1  0  0  0  0
M  CHG  2  26   1  28  -1
M  END
> <IC50(uM)>
0.39

> <Outcome>
1.0

> <BindingDB ID>
50251710

> <BindingDB MonomerID>
50137297

> <BindingDB Ligand Name>
2-(3-Nitro-3'-trifluoromethoxy-biphenyl-4-ylcarbamoyl)-cyclopent-1-enecarboxylic acid::CHEMBL155530

> <Curation/DataSource>
ChEMBL

> <Article DOI>
10.1016/j.bmcl.2003.10.021

> <PMID>
14684297

> <Patent Number>
?

> <Authors>
Leban, J; Saeb, W; Garcia, G; Baumgartner, R; Kramer, B

> <Link to Ligand in BindingDB>
http://www.bindingdb.org/bind/chemsearch/marvin/MolStructure.jsp?monomerid=50137297

> <Link to Ligand-Target Pair in BindingDB>
http://www.bindingdb.org/jsp/dbsearch/PrimarySearch_ki.jsp?energyterm=kJ/mole&tag=r21&monomerid=50137297&enzyme=Dihydroorotate+dehydrogenase&column=ki&startPg=0&Increment=50&submit=Search

> <PubChem CID>
44369833

> <PubChem SID>
104027463

$$$$

  Mrv2115 07222212352D          

 22 24  0  0  0  0            999 V2000
    2.1434   -2.8875    0.0000 O   0  0  0  0  0  0  0  0  0  0  0  0
    1.4289   -2.4750    0.0000 C   0  0  0  0  0  0  0  0  0  0  0  0
    0.7145   -2.8875    0.0000 O   0  0  0  0  0  0  0  0  0  0  0  0
    1.4289   -1.6500    0.0000 C   0  0  0  0  0  0  0  0  0  0  0  0
    0.7145   -1.2375    0.0000 C   0  0  0  0  0  0  0  0  0  0  0  0
    0.0000   -1.6500    0.0000 O   0  0  0  0  0  0  0  0  0  0  0  0
    0.7145   -0.4125    0.0000 C   0  0  0  0  0  0  0  0  0  0  0  0
    0.0000    0.0000    0.0000 C   0  0  0  0  0  0  0  0  0  0  0  0
   -0.7145   -0.4125    0.0000 C   0  0  0  0  0  0  0  0  0  0  0  0
   -1.4289    0.0000    0.0000 C   0  0  0  0  0  0  0  0  0  0  0  0
   -1.4289    0.8250    0.0000 C   0  0  0  0  0  0  0  0  0  0  0  0
   -2.1434    1.2375    0.0000 Cl  0  0  0  0  0  0  0  0  0  0  0  0
   -0.7145    1.2375    0.0000 C   0  0  0  0  0  0  0  0  0  0  0  0
    0.0000    0.8250    0.0000 C   0  0  0  0  0  0  0  0  0  0  0  0
    1.4289    0.0000    0.0000 N   0  0  0  0  0  0  0  0  0  0  0  0
    2.1434   -0.4125    0.0000 C   0  0  0  0  0  0  0  0  0  0  0  0
    2.8579    0.0000    0.0000 C   0  0  0  0  0  0  0  0  0  0  0  0
    3.5724   -0.4125    0.0000 C   0  0  0  0  0  0  0  0  0  0  0  0
    3.5724   -1.2375    0.0000 C   0  0  0  0  0  0  0  0  0  0  0  0
    4.2868   -1.6500    0.0000 F   0  0  0  0  0  0  0  0  0  0  0  0
    2.8579   -1.6500    0.0000 C   0  0  0  0  0  0  0  0  0  0  0  0
    2.1434   -1.2375    0.0000 C   0  0  0  0  0  0  0  0  0  0  0  0
  1  2  2  0  0  0  0
  2  3  1  0  0  0  0
  2  4  1  0  0  0  0
  4  5  4  0  0  0  0
  5  6  1  0  0  0  0
  5  7  4  0  0  0  0
  7  8  1  0  0  0  0
  8  9  4  0  0  0  0
  9 10  4  0  0  0  0
 10 11  4  0  0  0  0
 11 12  1  0  0  0  0
 11 13  4  0  0  0  0
 13 14  4  0  0  0  0
  8 14  4  0  0  0  0
  7 15  4  0  0  0  0
 15 16  4  0  0  0  0
 16 17  4  0  0  0  0
 17 18  4  0  0  0  0
 18 19  4  0  0  0  0
 19 20  1  0  0  0  0
 19 21  4  0  0  0  0
 21 22  4  0  0  0  0
  4 22  4  0  0  0  0
 16 22  4  0  0  0  0
M  END
> <IC50(uM)>
0.312

> <Outcome>
1.0

> <BindingDB ID>
50841910

> <BindingDB MonomerID>
50201934

> <BindingDB Ligand Name>
2-(4-chlorophenyl)-6-fluoro-3-hydroxyquinoline-4-carboxylic acid::CHEMBL218464

> <Curation/DataSource>
ChEMBL

> <Article DOI>
10.1021/jm0602256

> <PMID>
17201408

> <Patent Number>
?

> <Authors>
Kaila, N; Janz, K; DeBernardo, S; Bedard, PW; Camphausen, RT; Tam, S; Tsao, DH; Keith, JC; Nickerson-Nutter, C; Shilling, A; Young-Sciame, R; Wang, Q

> <Link to Ligand in BindingDB>
http://www.bindingdb.org/bind/chemsearch/marvin/MolStructure.jsp?monomerid=50201934

> <Link to Ligand-Target Pair in BindingDB>
http://www.bindingdb.org/jsp/dbsearch/PrimarySearch_ki.jsp?energyterm=kJ/mole&tag=r21&monomerid=50201934&enzyme=Dihydroorotate+dehydrogenase&column=ki&startPg=0&Increment=50&submit=Search

> <PubChem CID>
14498162

> <PubChem SID>
104081585

$$$$

  Mrv2115 07222212352D          

 38 42  0  0  0  0            999 V2000
   -5.1659   -2.8414    0.0000 C   0  0  0  0  0  0  0  0  0  0  0  0
   -5.5784   -2.1269    0.0000 C   0  0  0  0  0  0  0  0  0  0  0  0
   -6.4034   -2.1269    0.0000 C   0  0  0  0  0  0  0  0  0  0  0  0
   -6.8159   -1.4124    0.0000 C   0  0  0  0  0  0  0  0  0  0  0  0
   -6.4034   -0.6979    0.0000 C   0  0  0  0  0  0  0  0  0  0  0  0
   -5.5784   -0.6979    0.0000 C   0  0  0  0  0  0  0  0  0  0  0  0
   -5.1659    0.0165    0.0000 C   0  0  0  0  0  0  0  0  0  0  0  0
   -5.5784    0.7310    0.0000 N   0  0  0  0  0  0  0  0  0  0  0  0
   -5.1659   -1.4124    0.0000 C   0  0  0  0  0  0  0  0  0  0  0  0
   -4.3409   -1.4124    0.0000 N   0  0  0  0  0  0  0  0  0  0  0  0
   -3.9284   -0.6979    0.0000 C   0  0  0  0  0  0  0  0  0  0  0  0
   -4.3409    0.0165    0.0000 O   0  0  0  0  0  0  0  0  0  0  0  0
   -3.1034   -0.6979    0.0000 C   0  0  0  0  0  0  0  0  0  0  0  0
   -2.6909    0.0165    0.0000 C   0  0  0  0  0  0  0  0  0  0  0  0
   -1.8659    0.0165    0.0000 C   0  0  0  0  0  0  0  0  0  0  0  0
   -1.4534    0.7310    0.0000 F   0  0  0  0  0  0  0  0  0  0  0  0
   -1.4534   -0.6979    0.0000 C   0  0  0  0  0  0  0  0  0  0  0  0
   -0.6284   -0.6979    0.0000 N   0  0  0  0  0  0  0  0  0  0  0  0
   -0.1435   -1.3654    0.0000 N   0  0  0  0  0  0  0  0  0  0  0  0
    0.6411   -1.1104    0.0000 C   0  0  0  0  0  0  0  0  0  0  0  0
    0.6411   -0.2854    0.0000 N   0  0  0  0  0  0  0  0  0  0  0  0
   -0.1435   -0.0305    0.0000 C   0  0  0  0  0  0  0  0  0  0  0  0
   -0.3984    0.7541    0.0000 O   0  0  0  0  0  0  0  0  0  0  0  0
    1.3556    0.1271    0.0000 C   0  0  0  0  0  0  0  0  0  0  0  0
    2.0701   -0.2854    0.0000 C   0  0  0  0  0  0  0  0  0  0  0  0
    2.0701   -1.1104    0.0000 C   0  0  0  0  0  0  0  0  0  0  0  0
    1.3556   -1.5229    0.0000 C   0  0  0  0  0  0  0  0  0  0  0  0
   -1.8659   -1.4124    0.0000 C   0  0  0  0  0  0  0  0  0  0  0  0
   -2.6909   -1.4124    0.0000 C   0  0  0  0  0  0  0  0  0  0  0  0
   -3.1034   -2.1269    0.0000 O   0  0  0  0  0  0  0  0  0  0  0  0
   -2.6909   -2.8414    0.0000 C   0  0  0  0  0  0  0  0  0  0  0  0
   -1.8659   -2.8414    0.0000 C   0  0  0  0  0  0  0  0  0  0  0  0
   -3.1034   -3.5558    0.0000 C   0  0  0  0  0  0  0  0  0  0  0  0
   -2.6909   -4.2703    0.0000 C   0  0  0  0  0  0  0  0  0  0  0  0
   -3.1034   -4.9848    0.0000 C   0  0  0  0  0  0  0  0  0  0  0  0
   -3.9284   -4.9848    0.0000 C   0  0  0  0  0  0  0  0  0  0  0  0
   -4.3409   -4.2703    0.0000 C   0  0  0  0  0  0  0  0  0  0  0  0
   -3.9284   -3.5558    0.0000 C   0  0  0  0  0  0  0  0  0  0  0  0
  1  2  1  0  0  0  0
  2  3  4  0  0  0  0
  3  4  4  0  0  0  0
  4  5  4  0  0  0  0
  5  6  4  0  0  0  0
  6  7  1  0  0  0  0
  7  8  1  0  0  0  0
  6  9  4  0  0  0  0
  2  9  4  0  0  0  0
  9 10  1  0  0  0  0
 10 11  1  0  0  0  0
 11 12  2  0  0  0  0
 11 13  1  0  0  0  0
 13 14  4  0  0  0  0
 14 15  4  0  0  0  0
 15 16  1  0  0  0  0
 15 17  4  0  0  0  0
 17 18  1  0  0  0  0
 18 19  4  0  0  0  0
 19 20  4  0  0  0  0
 20 21  4  0  0  0  0
 21 22  4  0  0  0  0
 18 22  4  0  0  0  0
 22 23  2  0  0  0  0
 21 24  1  0  0  0  0
 24 25  1  0  0  0  0
 25 26  1  0  0  0  0
 26 27  1  0  0  0  0
 20 27  1  0  0  0  0
 17 28  4  0  0  0  0
 28 29  4  0  0  0  0
 13 29  4  0  0  0  0
 29 30  1  0  0  0  0
 30 31  1  0  0  0  0
 31 32  1  0  0  0  0
 31 33  1  0  0  0  0
 33 34  1  0  0  0  0
 34 35  1  0  0  0  0
 35 36  1  0  0  0  0
 36 37  1  0  0  0  0
 37 38  1  0  0  0  0
 33 38  1  0  0  0  0
M  END
> <IC50(uM)>
0.04715

> <Outcome>
1.0

> <BindingDB ID>
1020529; 1020528

> <BindingDB MonomerID>
490474

> <BindingDB Ligand Name>
N-[2-(aminomethyl)-6-methylphenyl]-2-[(1S)-1-cyclohexylethoxy]-5-fluoro-4-(3-oxo-5,6,7,8-tetrahydro[1,2,4]triazolo[4,3-a]pyridin-2(3H)-yl)benzamide::US10968216, Example 142

> <Curation/DataSource>
US Patent

> <Article DOI>
?

> <PMID>
?

> <Patent Number>
US10968216

> <Authors>
Gradl, SN; Nguyen, D; Eis, K; Gunther, J; Stellfeld, T; Janzer, A; Christian, S; Mueller, T; Sheikh, SE; Zhou, HJ; Zhao, C; Sykes, DB; Ferrara, SJ; Liu, K; Herbert, SA; Merz, C; Niehues, M; Nising, CF; Schafer, M; Zimmermann, K; Knablein, J; Thede, K; Faupel, T

> <Link to Ligand in BindingDB>
http://www.bindingdb.org/bind/chemsearch/marvin/MolStructure.jsp?monomerid=490474

> <Link to Ligand-Target Pair in BindingDB>
http://www.bindingdb.org/jsp/dbsearch/PrimarySearch_ki.jsp?energyterm=kJ/mole&tag=r21&monomerid=490474&enzyme=Dihydroorotate+dehydrogenase&column=ki&startPg=0&Increment=50&submit=Search

> <PubChem CID>
134474352

> <PubChem SID>
447117201

$$$$

  Mrv2115 07222212352D          

 25 27  0  0  0  0            999 V2000
    4.0668    2.3479    0.0000 C   0  0  0  0  0  0  0  0  0  0  0  0
    3.3523    1.9354    0.0000 C   0  0  0  0  0  0  0  0  0  0  0  0
    3.3523    1.1104    0.0000 C   0  0  0  0  0  0  0  0  0  0  0  0
    2.6378    0.6979    0.0000 C   0  0  0  0  0  0  0  0  0  0  0  0
    2.6378   -0.1271    0.0000 N   0  0  0  0  0  0  0  0  0  0  0  0
    3.3523   -0.5396    0.0000 C   0  0  0  0  0  0  0  0  0  0  0  0
    3.3523   -1.3646    0.0000 C   0  0  0  0  0  0  0  0  0  0  0  0
    4.0668   -1.7771    0.0000 C   0  0  0  0  0  0  0  0  0  0  0  0
    4.7812   -1.3646    0.0000 C   0  0  0  0  0  0  0  0  0  0  0  0
    5.4957   -1.7771    0.0000 C   0  0  0  0  0  0  0  0  0  0  0  0
    6.2102   -2.1896    0.0000 F   0  0  0  0  0  0  0  0  0  0  0  0
    5.0832   -2.4915    0.0000 F   0  0  0  0  0  0  0  0  0  0  0  0
    5.9082   -1.0626    0.0000 F   0  0  0  0  0  0  0  0  0  0  0  0
    4.7812   -0.5396    0.0000 C   0  0  0  0  0  0  0  0  0  0  0  0
    5.4957   -0.1271    0.0000 C   0  0  0  0  0  0  0  0  0  0  0  0
    6.2102    0.2854    0.0000 F   0  0  0  0  0  0  0  0  0  0  0  0
    6.1088   -0.6791    0.0000 F   0  0  0  0  0  0  0  0  0  0  0  0
    5.0832    0.5874    0.0000 F   0  0  0  0  0  0  0  0  0  0  0  0
    4.0668   -0.1271    0.0000 C   0  0  0  0  0  0  0  0  0  0  0  0
    1.9233    1.1104    0.0000 N   0  0  0  0  0  0  0  0  0  0  0  0
    1.1387    0.8555    0.0000 N   0  0  0  0  0  0  0  0  0  0  0  0
    0.6538    1.5229    0.0000 C   0  0  0  0  0  0  0  0  0  0  0  0
    1.1387    2.1904    0.0000 N   0  0  0  0  0  0  0  0  0  0  0  0
    1.9233    1.9354    0.0000 C   0  0  0  0  0  0  0  0  0  0  0  0
    2.6378    2.3479    0.0000 N   0  0  0  0  0  0  0  0  0  0  0  0
  1  2  1  0  0  0  0
  2  3  4  0  0  0  0
  3  4  4  0  0  0  0
  4  5  1  0  0  0  0
  5  6  1  0  0  0  0
  6  7  4  0  0  0  0
  7  8  4  0  0  0  0
  8  9  4  0  0  0  0
  9 10  1  0  0  0  0
 10 11  1  0  0  0  0
 10 12  1  0  0  0  0
 10 13  1  0  0  0  0
  9 14  4  0  0  0  0
 14 15  1  0  0  0  0
 15 16  1  0  0  0  0
 15 17  1  0  0  0  0
 15 18  1  0  0  0  0
 14 19  4  0  0  0  0
  6 19  4  0  0  0  0
  4 20  4  0  0  0  0
 20 21  4  0  0  0  0
 21 22  4  0  0  0  0
 22 23  4  0  0  0  0
 23 24  4  0  0  0  0
 20 24  4  0  0  0  0
 24 25  4  0  0  0  0
  2 25  4  0  0  0  0
M  END
> <IC50(uM)>
100.0

> <Outcome>
0.0

> <BindingDB ID>
50643151

> <BindingDB MonomerID>
50345404

> <BindingDB Ligand Name>
CHEMBL1784576::N-(3,4-Bis(trifluoromethyl)phenyl)-5-methyl-[1,2,4]triazolo[1,5-a]pyrimidin-7-amine::US9238653, Table 5, Compound 34

> <Curation/DataSource>
ChEMBL

> <Article DOI>
10.1021/jm200265b

> <PMID>
21517059

> <Patent Number>
?

> <Authors>
Gujjar, R; El Mazouni, F; White, KL; White, J; Creason, S; Shackleford, DM; Deng, X; Charman, WN; Bathurst, I; Burrows, J; Floyd, DM; Matthews, D; Buckner, FS; Charman, SA; Phillips, MA; Rathod, PK

> <Link to Ligand in BindingDB>
http://www.bindingdb.org/bind/chemsearch/marvin/MolStructure.jsp?monomerid=50345404

> <Link to Ligand-Target Pair in BindingDB>
http://www.bindingdb.org/jsp/dbsearch/PrimarySearch_ki.jsp?energyterm=kJ/mole&tag=r21&monomerid=50345404&enzyme=Dihydroorotate+dehydrogenase&column=ki&startPg=0&Increment=50&submit=Search

> <PubChem CID>
51347394

> <PubChem SID>
131348340

$$$$

  Mrv2115 07222212352D          

 18 19  0  0  0  0            999 V2000
    1.4289   -1.6500    0.0000 C   0  0  0  0  0  0  0  0  0  0  0  0
    1.4289   -2.4750    0.0000 C   0  0  0  0  0  0  0  0  0  0  0  0
    2.0964   -2.9599    0.0000 O   0  0  0  0  0  0  0  0  0  0  0  0
    1.8414   -3.7445    0.0000 N   0  0  0  0  0  0  0  0  0  0  0  0
    1.0164   -3.7445    0.0000 C   0  0  0  0  0  0  0  0  0  0  0  0
    0.7615   -2.9599    0.0000 C   0  0  0  0  0  0  0  0  0  0  0  0
   -0.0231   -2.7050    0.0000 C   0  0  0  0  0  0  0  0  0  0  0  0
   -0.1946   -1.8980    0.0000 S   0  0  0  0  0  0  0  0  0  0  0  0
   -0.6362   -3.2570    0.0000 N   0  0  0  0  0  0  0  0  0  0  0  0
   -1.4208   -3.0021    0.0000 C   0  0  0  0  0  0  0  0  0  0  0  0
   -2.0339   -3.5541    0.0000 C   0  0  0  0  0  0  0  0  0  0  0  0
   -2.8186   -3.2992    0.0000 C   0  0  0  0  0  0  0  0  0  0  0  0
   -2.9901   -2.4922    0.0000 C   0  0  0  0  0  0  0  0  0  0  0  0
   -3.7747   -2.2373    0.0000 N   0  0  0  0  0  0  0  0  0  0  0  0
   -4.3878   -2.7893    0.0000 C   0  0  0  0  0  0  0  0  0  0  0  0
   -3.9462   -1.4303    0.0000 C   0  0  0  0  0  0  0  0  0  0  0  0
   -2.3770   -1.9402    0.0000 C   0  0  0  0  0  0  0  0  0  0  0  0
   -1.5924   -2.1951    0.0000 C   0  0  0  0  0  0  0  0  0  0  0  0
  1  2  1  0  0  0  0
  2  3  4  0  0  0  0
  3  4  4  0  0  0  0
  4  5  4  0  0  0  0
  5  6  4  0  0  0  0
  2  6  4  0  0  0  0
  6  7  1  0  0  0  0
  7  8  2  0  0  0  0
  7  9  1  0  0  0  0
  9 10  1  0  0  0  0
 10 11  4  0  0  0  0
 11 12  4  0  0  0  0
 12 13  4  0  0  0  0
 13 14  1  0  0  0  0
 14 15  1  0  0  0  0
 14 16  1  0  0  0  0
 13 17  4  0  0  0  0
 17 18  4  0  0  0  0
 10 18  4  0  0  0  0
M  END
> <IC50(uM)>
50.0

> <Outcome>
0.0

> <BindingDB ID>
50123316

> <BindingDB MonomerID>
50071405

> <BindingDB Ligand Name>
5-Methyl-isoxazole-4-carbothioic acid (4-dimethylamino-phenyl)-amide::CHEMBL69668

> <Curation/DataSource>
ChEMBL

> <Article DOI>
10.1016/s0960-894x(98)00365-5

> <PMID>
9873513

> <Patent Number>
?

> <Authors>
Albert, R; Knecht, H; Andersen, E; Hungerford, V; Schreier, MH; Papageorgiou, C

> <Link to Ligand in BindingDB>
http://www.bindingdb.org/bind/chemsearch/marvin/MolStructure.jsp?monomerid=50071405

> <Link to Ligand-Target Pair in BindingDB>
http://www.bindingdb.org/jsp/dbsearch/PrimarySearch_ki.jsp?energyterm=kJ/mole&tag=r21&monomerid=50071405&enzyme=Dihydroorotate+dehydrogenase&column=ki&startPg=0&Increment=50&submit=Search

> <PubChem CID>
44310375

> <PubChem SID>
103965159

$$$$

  Mrv2115 07222212352D          

 27 29  0  0  0  0            999 V2000
    4.0668    2.3479    0.0000 C   0  0  0  0  0  0  0  0  0  0  0  0
    3.3523    1.9354    0.0000 C   0  0  0  0  0  0  0  0  0  0  0  0
    3.3523    1.1104    0.0000 C   0  0  0  0  0  0  0  0  0  0  0  0
    2.6378    0.6979    0.0000 C   0  0  0  0  0  0  0  0  0  0  0  0
    2.6378   -0.1271    0.0000 N   0  0  0  0  0  0  0  0  0  0  0  0
    3.3523   -0.5396    0.0000 C   0  0  0  0  0  0  0  0  0  0  0  0
    4.0668   -0.1271    0.0000 C   0  0  0  0  0  0  0  0  0  0  0  0
    4.7812   -0.5396    0.0000 C   0  0  0  0  0  0  0  0  0  0  0  0
    4.7812   -1.3646    0.0000 C   0  0  0  0  0  0  0  0  0  0  0  0
    5.4957   -1.7771    0.0000 S   0  0  0  0  0  0  0  0  0  0  0  0
    6.2102   -2.1896    0.0000 F   0  0  0  0  0  0  0  0  0  0  0  0
    4.7812   -2.1896    0.0000 F   0  0  0  0  0  0  0  0  0  0  0  0
    5.4957   -2.6021    0.0000 F   0  0  0  0  0  0  0  0  0  0  0  0
    6.2102   -1.3646    0.0000 F   0  0  0  0  0  0  0  0  0  0  0  0
    5.4957   -0.9521    0.0000 F   0  0  0  0  0  0  0  0  0  0  0  0
    4.0668   -1.7771    0.0000 C   0  0  0  0  0  0  0  0  0  0  0  0
    3.3523   -1.3646    0.0000 C   0  0  0  0  0  0  0  0  0  0  0  0
    1.9233    1.1104    0.0000 N   0  0  0  0  0  0  0  0  0  0  0  0
    1.1387    0.8555    0.0000 N   0  0  0  0  0  0  0  0  0  0  0  0
    0.6538    1.5229    0.0000 C   0  0  0  0  0  0  0  0  0  0  0  0
   -0.1712    1.5229    0.0000 C   0  0  0  0  0  0  0  0  0  0  0  0
   -0.9962    1.5229    0.0000 C   0  0  0  0  0  0  0  0  0  0  0  0
   -0.1712    2.3479    0.0000 F   0  0  0  0  0  0  0  0  0  0  0  0
   -0.1712    0.6979    0.0000 F   0  0  0  0  0  0  0  0  0  0  0  0
    1.1387    2.1904    0.0000 N   0  0  0  0  0  0  0  0  0  0  0  0
    1.9233    1.9354    0.0000 C   0  0  0  0  0  0  0  0  0  0  0  0
    2.6378    2.3479    0.0000 N   0  0  0  0  0  0  0  0  0  0  0  0
  1  2  1  0  0  0  0
  2  3  4  0  0  0  0
  3  4  4  0  0  0  0
  4  5  1  0  0  0  0
  5  6  1  0  0  0  0
  6  7  4  0  0  0  0
  7  8  4  0  0  0  0
  8  9  4  0  0  0  0
  9 10  1  0  0  0  0
 10 11  1  0  0  0  0
 10 12  1  0  0  0  0
 10 13  1  0  0  0  0
 10 14  1  0  0  0  0
 10 15  1  0  0  0  0
  9 16  4  0  0  0  0
 16 17  4  0  0  0  0
  6 17  4  0  0  0  0
  4 18  4  0  0  0  0
 18 19  4  0  0  0  0
 19 20  4  0  0  0  0
 20 21  1  0  0  0  0
 21 22  1  0  0  0  0
 21 23  1  0  0  0  0
 21 24  1  0  0  0  0
 20 25  4  0  0  0  0
 25 26  4  0  0  0  0
 18 26  4  0  0  0  0
 26 27  4  0  0  0  0
  2 27  4  0  0  0  0
M  END
> <IC50(uM)>
87.5

> <Outcome>
0.0

> <BindingDB ID>
51330076; 51372993; 50720160; 51327346

> <BindingDB MonomerID>
50365230

> <BindingDB Ligand Name>
CHEMBL1956285::US9238653, Table 5, Compound 10

> <Curation/DataSource>
ChEMBL

> <Article DOI>
10.1021/acs.jmedchem.0c00311; ?; 10.1021/jm200592f; 10.1016/j.ejmech.2019.01.027

> <PMID>
32248693; 27127993; 21696174; 30703745

> <Patent Number>
?

> <Authors>
Kokkonda, S; Deng, X; White, KL; El Mazouni, F; White, J; Shackleford, DM; Katneni, K; Chiu, FCK; Barker, H; McLaren, J; Crighton, E; Chen, G; Angulo-Barturen, I; Jimenez-Diaz, MB; Ferrer, S; Huertas-Valentin, L; Martinez-Martinez, MS; Lafuente-Monasterio, MJ; Chittimalla, R; Shahi, SP; Wittlin, S; Waterson, D; Burrows, JN; Matthews, D; Tomchick, D; Rathod, PK; Palmer, MJ; Charman, SA; Phillips, MA; Kokkonda, S; Deng, X; White, KL; Coteron, JM; Marco, M; de Las Heras, L; White, J; El Mazouni, F; Tomchick, DR; Manjalanagara, K; Rudra, KR; Chen, G; Morizzi, J; Ryan, E; Kaminsky, W; Leroy, D; Mart??nez-Mart??nez, MS; Jimenez-Diaz, MB; Bazaga, SF; Angulo-Barturen, I; Waterson, D; Burrows, JN; Matthews, D; Charman, SA; Phillips, MA; Rathod, PK; Coteron, JM; Marco, M; Esquivias, J; Deng, X; White, KL; White, J; Koltun, M; El Mazouni, F; Kokkonda, S; Katneni, K; Bhamidipati, R; Shackleford, DM; Angulo-Barturen, I; Ferrer, SB; Jimenez-Diaz, MB; Gamo, FJ; Goldsmith, EJ; Charman, WN; Bathurst, I; Floyd, D; Matthews, D; Burrows, JN; Rathod, PK; Charman, SA; Phillips, MA; Oukoloff, K; Lucero, B; Francisco, KR; Brunden, KR; Ballatore, C

> <Link to Ligand in BindingDB>
http://www.bindingdb.org/bind/chemsearch/marvin/MolStructure.jsp?monomerid=50365230

> <Link to Ligand-Target Pair in BindingDB>
http://www.bindingdb.org/jsp/dbsearch/PrimarySearch_ki.jsp?energyterm=kJ/mole&tag=r21&monomerid=50365230&enzyme=Dihydroorotate+dehydrogenase&column=ki&startPg=0&Increment=50&submit=Search

> <PubChem CID>
51347395

> <PubChem SID>
136969292

$$$$

  Mrv2115 07222212352D          

 28 31  0  0  0  0            999 V2000
    0.0000   -1.6500    0.0000 C   0  0  0  0  0  0  0  0  0  0  0  0
    0.7145   -1.2375    0.0000 C   0  0  0  0  0  0  0  0  0  0  0  0
    0.7145   -0.4125    0.0000 C   0  0  0  0  0  0  0  0  0  0  0  0
    0.0000    0.0000    0.0000 C   0  0  0  0  0  0  0  0  0  0  0  0
   -0.7145   -0.4125    0.0000 C   0  0  0  0  0  0  0  0  0  0  0  0
   -1.4289    0.0000    0.0000 C   0  0  0  0  0  0  0  0  0  0  0  0
   -1.4289    0.8250    0.0000 C   0  0  0  0  0  0  0  0  0  0  0  0
   -2.1434    1.2375    0.0000 C   0  0  0  0  0  0  0  0  0  0  0  0
   -2.8579    0.8250    0.0000 C   0  0  0  0  0  0  0  0  0  0  0  0
   -3.5724    1.2375    0.0000 C   0  0  0  0  0  0  0  0  0  0  0  0
   -3.5724    2.0625    0.0000 C   0  0  0  0  0  0  0  0  0  0  0  0
   -2.8579    2.4750    0.0000 C   0  0  0  0  0  0  0  0  0  0  0  0
   -2.1434    2.0625    0.0000 C   0  0  0  0  0  0  0  0  0  0  0  0
   -1.4289    2.4750    0.0000 F   0  0  0  0  0  0  0  0  0  0  0  0
   -0.7145    1.2375    0.0000 C   0  0  0  0  0  0  0  0  0  0  0  0
    0.0000    0.8250    0.0000 C   0  0  0  0  0  0  0  0  0  0  0  0
    1.4289    0.0000    0.0000 N   0  0  0  0  0  0  0  0  0  0  0  0
    2.1434   -0.4125    0.0000 C   0  0  0  0  0  0  0  0  0  0  0  0
    2.8579    0.0000    0.0000 C   0  0  0  0  0  0  0  0  0  0  0  0
    3.5724   -0.4125    0.0000 C   0  0  0  0  0  0  0  0  0  0  0  0
    3.5724   -1.2375    0.0000 C   0  0  0  0  0  0  0  0  0  0  0  0
    4.2868   -1.6500    0.0000 F   0  0  0  0  0  0  0  0  0  0  0  0
    2.8579   -1.6500    0.0000 C   0  0  0  0  0  0  0  0  0  0  0  0
    2.1434   -1.2375    0.0000 C   0  0  0  0  0  0  0  0  0  0  0  0
    1.4289   -1.6500    0.0000 C   0  0  0  0  0  0  0  0  0  0  0  0
    1.4289   -2.4750    0.0000 C   0  0  0  0  0  0  0  0  0  0  0  0
    0.7145   -2.8875    0.0000 F   0  0  0  0  0  0  0  0  0  0  0  0
    2.1434   -2.8875    0.0000 F   0  0  0  0  0  0  0  0  0  0  0  0
  1  2  1  0  0  0  0
  2  3  4  0  0  0  0
  3  4  1  0  0  0  0
  4  5  4  0  0  0  0
  5  6  4  0  0  0  0
  6  7  4  0  0  0  0
  7  8  1  0  0  0  0
  8  9  4  0  0  0  0
  9 10  4  0  0  0  0
 10 11  4  0  0  0  0
 11 12  4  0  0  0  0
 12 13  4  0  0  0  0
  8 13  4  0  0  0  0
 13 14  1  0  0  0  0
  7 15  4  0  0  0  0
 15 16  4  0  0  0  0
  4 16  4  0  0  0  0
  3 17  4  0  0  0  0
 17 18  4  0  0  0  0
 18 19  4  0  0  0  0
 19 20  4  0  0  0  0
 20 21  4  0  0  0  0
 21 22  1  0  0  0  0
 21 23  4  0  0  0  0
 23 24  4  0  0  0  0
 18 24  4  0  0  0  0
 24 25  4  0  0  0  0
  2 25  4  0  0  0  0
 25 26  1  0  0  0  0
 26 27  1  0  0  0  0
 26 28  1  0  0  0  0
M  END
> <IC50(uM)>
0.16

> <Outcome>
1.0

> <BindingDB ID>
51370188

> <BindingDB MonomerID>
50554016

> <BindingDB Ligand Name>
CHEMBL4748668

> <Curation/DataSource>
ChEMBL

> <Article DOI>
?

> <PMID>
33007394

> <Patent Number>
?

> <Authors>
DeRatt, LG; Christine Pietsch, E; Tanner, A; Shaffer, P; Jacoby, E; Wang, W; Kazmi, F; Zhang, X; Attar, RM; Edwards, JP; Kuduk, SD

> <Link to Ligand in BindingDB>
http://www.bindingdb.org/bind/chemsearch/marvin/MolStructure.jsp?monomerid=50554016

> <Link to Ligand-Target Pair in BindingDB>
http://www.bindingdb.org/jsp/dbsearch/PrimarySearch_ki.jsp?energyterm=kJ/mole&tag=r21&monomerid=50554016&enzyme=Dihydroorotate+dehydrogenase&column=ki&startPg=0&Increment=50&submit=Search

> <PubChem CID>
162649846

> <PubChem SID>
461692784

$$$$

  Mrv2115 07222212352D          

 35 37  0  0  0  0            999 V2000
    2.1434   -3.7125    0.0000 C   0  0  0  0  0  0  0  0  0  0  0  0
    1.4289   -4.1250    0.0000 C   0  0  0  0  0  0  0  0  0  0  0  0
    1.4289   -4.9500    0.0000 N   0  0  0  0  0  0  0  0  0  0  0  0
    0.7615   -5.4349    0.0000 C   0  0  0  0  0  0  0  0  0  0  0  0
   -0.0231   -5.1800    0.0000 C   0  0  0  0  0  0  0  0  0  0  0  0
   -0.1946   -4.3730    0.0000 O   0  0  0  0  0  0  0  0  0  0  0  0
    1.0164   -6.2195    0.0000 N   0  0  0  0  0  0  0  0  0  0  0  0
    1.8414   -6.2195    0.0000 N   0  0  0  0  0  0  0  0  0  0  0  0
    2.3264   -6.8870    0.0000 C   0  0  0  0  0  0  0  0  0  0  0  0
    3.1468   -6.8007    0.0000 C   0  0  0  0  0  0  0  0  0  0  0  0
    3.6318   -7.4682    0.0000 C   0  0  0  0  0  0  0  0  0  0  0  0
    4.4522   -7.3820    0.0000 O   0  0  0  0  0  0  0  0  0  0  0  0
    4.7878   -6.6283    0.0000 C   0  0  0  0  0  0  0  0  0  0  0  0
    4.3029   -5.9608    0.0000 C   0  0  0  0  0  0  0  0  0  0  0  0
    5.6083   -6.5420    0.0000 C   0  0  0  0  0  0  0  0  0  0  0  0
    5.6945   -7.3625    0.0000 C   0  0  0  0  0  0  0  0  0  0  0  0
    5.5221   -5.7216    0.0000 F   0  0  0  0  0  0  0  0  0  0  0  0
    6.4288   -6.4558    0.0000 F   0  0  0  0  0  0  0  0  0  0  0  0
    3.2962   -8.2219    0.0000 C   0  0  0  0  0  0  0  0  0  0  0  0
    3.7811   -8.8893    0.0000 C   0  0  0  0  0  0  0  0  0  0  0  0
    3.4456   -9.6430    0.0000 O   0  0  0  0  0  0  0  0  0  0  0  0
    4.6016   -8.8031    0.0000 N   0  0  0  0  0  0  0  0  0  0  0  0
    5.0865   -9.4705    0.0000 C   0  0  0  0  0  0  0  0  0  0  0  0
    5.9070   -9.3843    0.0000 C   0  0  0  0  0  0  0  0  0  0  0  0
    6.2426   -8.6306    0.0000 F   0  0  0  0  0  0  0  0  0  0  0  0
    6.3919  -10.0517    0.0000 C   0  0  0  0  0  0  0  0  0  0  0  0
    6.0564  -10.8054    0.0000 C   0  0  0  0  0  0  0  0  0  0  0  0
    5.2359  -10.8916    0.0000 C   0  0  0  0  0  0  0  0  0  0  0  0
    4.7510  -10.2242    0.0000 C   0  0  0  0  0  0  0  0  0  0  0  0
    3.9305  -10.3104    0.0000 Cl  0  0  0  0  0  0  0  0  0  0  0  0
    2.4757   -8.3081    0.0000 C   0  0  0  0  0  0  0  0  0  0  0  0
    1.9908   -7.6407    0.0000 C   0  0  0  0  0  0  0  0  0  0  0  0
    1.1703   -7.7269    0.0000 F   0  0  0  0  0  0  0  0  0  0  0  0
    2.0964   -5.4349    0.0000 C   0  0  0  0  0  0  0  0  0  0  0  0
    2.8810   -5.1800    0.0000 O   0  0  0  0  0  0  0  0  0  0  0  0
  1  2  1  0  0  0  0
  2  3  1  0  0  0  0
  3  4  4  0  0  0  0
  4  5  1  0  0  0  0
  5  6  1  0  0  0  0
  4  7  4  0  0  0  0
  7  8  4  0  0  0  0
  8  9  1  0  0  0  0
  9 10  4  0  0  0  0
 10 11  4  0  0  0  0
 11 12  1  0  0  0  0
 12 13  1  0  0  0  0
 13 14  1  0  0  0  0
 13 15  1  0  0  0  0
 15 16  1  0  0  0  0
 15 17  1  0  0  0  0
 15 18  1  0  0  0  0
 11 19  4  0  0  0  0
 19 20  1  0  0  0  0
 20 21  2  0  0  0  0
 20 22  1  0  0  0  0
 22 23  1  0  0  0  0
 23 24  4  0  0  0  0
 24 25  1  0  0  0  0
 24 26  4  0  0  0  0
 26 27  4  0  0  0  0
 27 28  4  0  0  0  0
 28 29  4  0  0  0  0
 23 29  4  0  0  0  0
 29 30  1  0  0  0  0
 19 31  4  0  0  0  0
 31 32  4  0  0  0  0
  9 32  4  0  0  0  0
 32 33  1  0  0  0  0
  8 34  4  0  0  0  0
  3 34  4  0  0  0  0
 34 35  2  0  0  0  0
M  END
> <IC50(uM)>
0.01

> <Outcome>
1.0

> <BindingDB ID>
1098801; 972647

> <BindingDB MonomerID>
470525

> <BindingDB Ligand Name>
N-(2-chloro-6-fluorophenyl)-2-{[3,3-difluorobutan-2-yl]oxy}-4-[4-ethyl-3-(hydroxymethyl)-5-oxo-4,5-dihydro-1H-1,2,4-triazol-1-yl]-5-fluorobenzamide (Racemic)::US10815215, Example 185::US11130745, Example 185; N-(2-chloro-6-fluorophenyl)-2-{[3,3-difluorobutan-2-yl]oxy}-4-[4-ethyl-3-(hydroxymethyl)-5-oxo-4,5-dihydro-1H-1,2,4-triazol-1-yl]-5-fluorobenzamide (Racemic)::US10815215, Example 185

> <Curation/DataSource>
US Patent

> <Article DOI>
?

> <PMID>
?

> <Patent Number>
US11130745; US10815215

> <Authors>
Gradl, SN; Nguyen, D; Eis, K; Gunther, J; Stellfeld, T; Janzer, A; Christian, S; Muller, T; Sheikh, SE; Sykes, DB; Ferrara, SJ; Krober, M; Merz, C; Niehues, M; Schafer, M; Zimmermann, K; Nising, CF; Gradl, SN; Nguyen, D; Eis, K; Gunther, J; Stellfeld, T; Janzer, A; Christian, S; Muller, T; Sheikh, SE; Zhou, HJ; Zhao, C; Sykes, DB; Ferrara, SJ; Liu, K; Krober, M; Merz, C; Niehues, M; Schafer, M; Zimmermann, K; Nising, CF

> <Link to Ligand in BindingDB>
http://www.bindingdb.org/bind/chemsearch/marvin/MolStructure.jsp?monomerid=470525

> <Link to Ligand-Target Pair in BindingDB>
http://www.bindingdb.org/jsp/dbsearch/PrimarySearch_ki.jsp?energyterm=kJ/mole&tag=r21&monomerid=470525&enzyme=Dihydroorotate+dehydrogenase&column=ki&startPg=0&Increment=50&submit=Search

> <PubChem CID>
134470204

> <PubChem SID>
441609701

$$$$

  Mrv2115 07222212352D          

 36 38  0  0  0  0            999 V2000
   -0.7145   -3.7125    0.0000 C   0  0  0  0  0  0  0  0  0  0  0  0
    0.0000   -4.1250    0.0000 C   0  0  0  0  0  0  0  0  0  0  0  0
    0.0000   -4.9500    0.0000 C   0  0  0  0  0  0  0  0  0  0  0  0
   -0.6674   -5.4349    0.0000 N   0  0  0  0  0  0  0  0  0  0  0  0
   -0.4125   -6.2195    0.0000 N   0  0  0  0  0  0  0  0  0  0  0  0
   -0.8974   -6.8870    0.0000 C   0  0  0  0  0  0  0  0  0  0  0  0
   -0.5619   -7.6407    0.0000 C   0  0  0  0  0  0  0  0  0  0  0  0
   -1.0468   -8.3081    0.0000 C   0  0  0  0  0  0  0  0  0  0  0  0
   -0.7112   -9.0618    0.0000 O   0  0  0  0  0  0  0  0  0  0  0  0
    0.1093   -9.1480    0.0000 C   0  0  0  0  0  0  0  0  0  0  0  0
    0.5942   -8.4806    0.0000 C   0  0  0  0  0  0  0  0  0  0  0  0
    0.4448   -9.9017    0.0000 C   0  0  0  0  0  0  0  0  0  0  0  0
   -0.3089  -10.2372    0.0000 F   0  0  0  0  0  0  0  0  0  0  0  0
    1.1985   -9.5661    0.0000 F   0  0  0  0  0  0  0  0  0  0  0  0
    0.7804  -10.6554    0.0000 F   0  0  0  0  0  0  0  0  0  0  0  0
   -1.8673   -8.2219    0.0000 C   0  0  0  0  0  0  0  0  0  0  0  0
   -2.3522   -8.8893    0.0000 C   0  0  0  0  0  0  0  0  0  0  0  0
   -2.0166   -9.6430    0.0000 O   0  0  0  0  0  0  0  0  0  0  0  0
   -3.1727   -8.8031    0.0000 N   0  0  0  0  0  0  0  0  0  0  0  0
   -3.6576   -9.4705    0.0000 C   0  0  0  0  0  0  0  0  0  0  0  0
   -3.3220  -10.2242    0.0000 C   0  0  0  0  0  0  0  0  0  0  0  0
   -2.5016  -10.3104    0.0000 F   0  0  0  0  0  0  0  0  0  0  0  0
   -3.8070  -10.8916    0.0000 C   0  0  0  0  0  0  0  0  0  0  0  0
   -4.6274  -10.8054    0.0000 C   0  0  0  0  0  0  0  0  0  0  0  0
   -4.9630  -10.0517    0.0000 C   0  0  0  0  0  0  0  0  0  0  0  0
   -4.4781   -9.3843    0.0000 C   0  0  0  0  0  0  0  0  0  0  0  0
   -4.8136   -8.6306    0.0000 F   0  0  0  0  0  0  0  0  0  0  0  0
   -2.2028   -7.4682    0.0000 C   0  0  0  0  0  0  0  0  0  0  0  0
   -1.7179   -6.8007    0.0000 C   0  0  0  0  0  0  0  0  0  0  0  0
   -2.0535   -6.0471    0.0000 F   0  0  0  0  0  0  0  0  0  0  0  0
    0.4125   -6.2195    0.0000 C   0  0  0  0  0  0  0  0  0  0  0  0
    0.8974   -6.8870    0.0000 O   0  0  0  0  0  0  0  0  0  0  0  0
    0.6674   -5.4349    0.0000 N   0  0  0  0  0  0  0  0  0  0  0  0
    1.4521   -5.1800    0.0000 C   0  0  0  0  0  0  0  0  0  0  0  0
    2.0652   -5.7320    0.0000 C   0  0  0  0  0  0  0  0  0  0  0  0
    2.8498   -5.4771    0.0000 O   0  0  0  0  0  0  0  0  0  0  0  0
  1  2  1  0  0  0  0
  2  3  1  0  0  0  0
  3  4  4  0  0  0  0
  4  5  4  0  0  0  0
  5  6  1  0  0  0  0
  6  7  4  0  0  0  0
  7  8  4  0  0  0  0
  8  9  1  0  0  0  0
  9 10  1  0  0  0  0
 10 11  1  0  0  0  0
 10 12  1  0  0  0  0
 12 13  1  0  0  0  0
 12 14  1  0  0  0  0
 12 15  1  0  0  0  0
  8 16  4  0  0  0  0
 16 17  1  0  0  0  0
 17 18  2  0  0  0  0
 17 19  1  0  0  0  0
 19 20  1  0  0  0  0
 20 21  4  0  0  0  0
 21 22  1  0  0  0  0
 21 23  4  0  0  0  0
 23 24  4  0  0  0  0
 24 25  4  0  0  0  0
 25 26  4  0  0  0  0
 20 26  4  0  0  0  0
 26 27  1  0  0  0  0
 16 28  4  0  0  0  0
 28 29  4  0  0  0  0
  6 29  4  0  0  0  0
 29 30  1  0  0  0  0
  5 31  4  0  0  0  0
 31 32  2  0  0  0  0
 31 33  4  0  0  0  0
  3 33  4  0  0  0  0
 33 34  1  0  0  0  0
 34 35  1  0  0  0  0
 35 36  1  0  0  0  0
M  END
> <IC50(uM)>
1.1

> <Outcome>
0.0

> <BindingDB ID>
972566; 1098720

> <BindingDB MonomerID>
470440

> <BindingDB Ligand Name>
N-(2,6-difluorophenyl)-4-[3-ethyl-4-(2-hydroxyethyl)-5-oxo-4,5-dihydro-1H-1,2,4-triazol-1-yl]-5-fluoro-2-{[(2S)-1,1,1-trifluoropropan-2-yl]oxy}benzamide::US10815215, Example 108; N-(2,6-difluorophenyl)-4-[3-ethyl-4-(2-hydroxyethyl)-5-oxo-4,5-dihydro-1H-1,2,4-triazol-1-yl]-5-fluoro-2-{[(2S)-1,1,1-trifluoropropan-2-yl]oxy}benzamide::US10815215, Example 108::US11130745, Example 108

> <Curation/DataSource>
US Patent

> <Article DOI>
?

> <PMID>
?

> <Patent Number>
US10815215; US11130745

> <Authors>
Gradl, SN; Nguyen, D; Eis, K; Gunther, J; Stellfeld, T; Janzer, A; Christian, S; Muller, T; Sheikh, SE; Zhou, HJ; Zhao, C; Sykes, DB; Ferrara, SJ; Liu, K; Krober, M; Merz, C; Niehues, M; Schafer, M; Zimmermann, K; Nising, CF; Gradl, SN; Nguyen, D; Eis, K; Gunther, J; Stellfeld, T; Janzer, A; Christian, S; Muller, T; Sheikh, SE; Sykes, DB; Ferrara, SJ; Krober, M; Merz, C; Niehues, M; Schafer, M; Zimmermann, K; Nising, CF

> <Link to Ligand in BindingDB>
http://www.bindingdb.org/bind/chemsearch/marvin/MolStructure.jsp?monomerid=470440

> <Link to Ligand-Target Pair in BindingDB>
http://www.bindingdb.org/jsp/dbsearch/PrimarySearch_ki.jsp?energyterm=kJ/mole&tag=r21&monomerid=470440&enzyme=Dihydroorotate+dehydrogenase&column=ki&startPg=0&Increment=50&submit=Search

> <PubChem CID>
142335798

> <PubChem SID>
441609617

$$$$

  Mrv2115 07222212352D          

 32 33  0  0  0  0            999 V2000
   -2.1434   -1.2375    0.0000 C   0  0  0  0  0  0  0  0  0  0  0  0
   -1.4289   -1.6500    0.0000 C   0  0  0  0  0  0  0  0  0  0  0  0
   -0.7145   -1.2375    0.0000 C   0  0  0  0  0  0  0  0  0  0  0  0
    0.0000   -1.6500    0.0000 C   0  0  0  0  0  0  0  0  0  0  0  0
    0.0000   -2.4750    0.0000 C   0  0  0  0  0  0  0  0  0  0  0  0
    0.7145   -1.2375    0.0000 O   0  0  0  0  0  0  0  0  0  0  0  0
    0.7145   -0.4125    0.0000 C   0  0  0  0  0  0  0  0  0  0  0  0
    0.0000    0.0000    0.0000 C   0  0  0  0  0  0  0  0  0  0  0  0
    0.0000    0.8250    0.0000 C   0  0  0  0  0  0  0  0  0  0  0  0
   -0.7145    1.2375    0.0000 N   0  0  0  0  0  0  0  0  0  0  0  0
   -1.4681    0.9019    0.0000 N   0  0  0  0  0  0  0  0  0  0  0  0
   -2.0202    1.5150    0.0000 C   0  0  0  0  0  0  0  0  0  0  0  0
   -2.8407    1.4288    0.0000 C   0  0  0  0  0  0  0  0  0  0  0  0
   -3.3256    2.0962    0.0000 C   0  0  0  0  0  0  0  0  0  0  0  0
   -3.1762    0.6751    0.0000 C   0  0  0  0  0  0  0  0  0  0  0  0
   -1.6077    2.2295    0.0000 N   0  0  0  0  0  0  0  0  0  0  0  0
   -1.9432    2.9832    0.0000 C   0  0  0  0  0  0  0  0  0  0  0  0
   -0.8007    2.0580    0.0000 C   0  0  0  0  0  0  0  0  0  0  0  0
   -0.1876    2.6100    0.0000 O   0  0  0  0  0  0  0  0  0  0  0  0
    0.7145    1.2375    0.0000 C   0  0  0  0  0  0  0  0  0  0  0  0
    0.7145    2.0625    0.0000 F   0  0  0  0  0  0  0  0  0  0  0  0
    1.4289    0.8250    0.0000 C   0  0  0  0  0  0  0  0  0  0  0  0
    1.4289    0.0000    0.0000 C   0  0  0  0  0  0  0  0  0  0  0  0
    2.1434   -0.4125    0.0000 C   0  0  0  0  0  0  0  0  0  0  0  0
    2.8579    0.0000    0.0000 O   0  0  0  0  0  0  0  0  0  0  0  0
    2.1434   -1.2375    0.0000 N   0  0  0  0  0  0  0  0  0  0  0  0
    2.8579   -1.6500    0.0000 C   0  0  0  0  0  0  0  0  0  0  0  0
    2.8579   -2.4750    0.0000 C   0  0  0  0  0  0  0  0  0  0  0  0
    3.5724   -2.8875    0.0000 C   0  0  0  0  0  0  0  0  0  0  0  0
    3.5724   -1.2375    0.0000 C   0  0  0  0  0  0  0  0  0  0  0  0
    4.2868   -1.6500    0.0000 N   0  0  0  0  0  0  0  0  0  0  0  0
    3.5724   -0.4125    0.0000 O   0  0  0  0  0  0  0  0  0  0  0  0
  1  2  1  0  0  0  0
  2  3  1  0  0  0  0
  3  4  1  0  0  0  0
  4  5  1  0  0  0  0
  4  6  1  0  0  0  0
  6  7  1  0  0  0  0
  7  8  4  0  0  0  0
  8  9  4  0  0  0  0
  9 10  1  0  0  0  0
 10 11  4  0  0  0  0
 11 12  4  0  0  0  0
 12 13  1  0  0  0  0
 13 14  1  0  0  0  0
 13 15  1  0  0  0  0
 12 16  4  0  0  0  0
 16 17  1  0  0  0  0
 16 18  4  0  0  0  0
 10 18  4  0  0  0  0
 18 19  2  0  0  0  0
  9 20  4  0  0  0  0
 20 21  1  0  0  0  0
 20 22  4  0  0  0  0
 22 23  4  0  0  0  0
  7 23  4  0  0  0  0
 23 24  1  0  0  0  0
 24 25  2  0  0  0  0
 24 26  1  0  0  0  0
 26 27  1  0  0  0  0
 27 28  1  0  0  0  0
 28 29  1  0  0  0  0
 27 30  1  0  0  0  0
 30 31  1  0  0  0  0
 30 32  2  0  0  0  0
M  END
> <IC50(uM)>
20.0

> <Outcome>
0.0

> <BindingDB ID>
972543; 1098697

> <BindingDB MonomerID>
470417

> <BindingDB Ligand Name>
N-[(2R)-1-amino-1-oxobutan-2-yl]-5-fluoro-4-[4-methyl-5-oxo-3-(propan-2-yl)-4,5-dihydro-1H-1,2,4-triazol-1-yl]-2-[(2S)-pentan-2-yloxy]benzamide::US10815215, Example 76; N-[(2R)-1-amino-1-oxobutan-2-yl]-5-fluoro-4-[4-methyl-5-oxo-3-(propan-2-yl)-4,5-dihydro-1H-1,2,4-triazol-1-yl]-2-[(2S)-pentan-2-yloxy]benzamide::US10815215, Example 76::US11130745, Example 76

> <Curation/DataSource>
US Patent

> <Article DOI>
?

> <PMID>
?

> <Patent Number>
US10815215; US11130745

> <Authors>
Gradl, SN; Nguyen, D; Eis, K; Gunther, J; Stellfeld, T; Janzer, A; Christian, S; Muller, T; Sheikh, SE; Zhou, HJ; Zhao, C; Sykes, DB; Ferrara, SJ; Liu, K; Krober, M; Merz, C; Niehues, M; Schafer, M; Zimmermann, K; Nising, CF; Gradl, SN; Nguyen, D; Eis, K; Gunther, J; Stellfeld, T; Janzer, A; Christian, S; Muller, T; Sheikh, SE; Sykes, DB; Ferrara, SJ; Krober, M; Merz, C; Niehues, M; Schafer, M; Zimmermann, K; Nising, CF

> <Link to Ligand in BindingDB>
http://www.bindingdb.org/bind/chemsearch/marvin/MolStructure.jsp?monomerid=470417

> <Link to Ligand-Target Pair in BindingDB>
http://www.bindingdb.org/jsp/dbsearch/PrimarySearch_ki.jsp?energyterm=kJ/mole&tag=r21&monomerid=470417&enzyme=Dihydroorotate+dehydrogenase&column=ki&startPg=0&Increment=50&submit=Search

> <PubChem CID>
134469913

> <PubChem SID>
441609594

$$$$

  Mrv2115 07222212352D          

 25 27  0  0  0  0            999 V2000
    0.7145   -3.7125    0.0000 O   0  0  0  0  0  0  0  0  0  0  0  0
    1.4289   -4.1250    0.0000 C   0  0  0  0  0  0  0  0  0  0  0  0
    2.1434   -3.7125    0.0000 O   0  0  0  0  0  0  0  0  0  0  0  0
    1.4289   -4.9500    0.0000 C   0  0  0  0  0  0  0  0  0  0  0  0
    2.0964   -5.4349    0.0000 C   0  0  0  0  0  0  0  0  0  0  0  0
    2.8810   -5.1800    0.0000 C   0  0  0  0  0  0  0  0  0  0  0  0
    3.4941   -5.7320    0.0000 O   0  0  0  0  0  0  0  0  0  0  0  0
    3.0525   -4.3730    0.0000 N   0  0  0  0  0  0  0  0  0  0  0  0
    3.8372   -4.1181    0.0000 C   0  0  0  0  0  0  0  0  0  0  0  0
    4.0087   -3.3111    0.0000 C   0  0  0  0  0  0  0  0  0  0  0  0
    4.7933   -3.0562    0.0000 C   0  0  0  0  0  0  0  0  0  0  0  0
    5.4064   -3.6082    0.0000 C   0  0  0  0  0  0  0  0  0  0  0  0
    6.1910   -3.3533    0.0000 C   0  0  0  0  0  0  0  0  0  0  0  0
    6.3625   -2.5463    0.0000 C   0  0  0  0  0  0  0  0  0  0  0  0
    7.1472   -2.2913    0.0000 C   0  0  0  0  0  0  0  0  0  0  0  0
    7.7603   -2.8434    0.0000 C   0  0  0  0  0  0  0  0  0  0  0  0
    8.5449   -2.5884    0.0000 Br  0  0  0  0  0  0  0  0  0  0  0  0
    7.5887   -3.6503    0.0000 C   0  0  0  0  0  0  0  0  0  0  0  0
    6.8041   -3.9053    0.0000 C   0  0  0  0  0  0  0  0  0  0  0  0
    5.2349   -4.4152    0.0000 C   0  0  0  0  0  0  0  0  0  0  0  0
    4.4502   -4.6701    0.0000 C   0  0  0  0  0  0  0  0  0  0  0  0
    4.2787   -5.4771    0.0000 Cl  0  0  0  0  0  0  0  0  0  0  0  0
    1.8414   -6.2195    0.0000 C   0  0  0  0  0  0  0  0  0  0  0  0
    1.0164   -6.2195    0.0000 C   0  0  0  0  0  0  0  0  0  0  0  0
    0.7615   -5.4349    0.0000 C   0  0  0  0  0  0  0  0  0  0  0  0
  1  2  2  0  0  0  0
  2  3  1  0  0  0  0
  2  4  1  0  0  0  0
  4  5  2  0  0  0  0
  5  6  1  0  0  0  0
  6  7  2  0  0  0  0
  6  8  1  0  0  0  0
  8  9  1  0  0  0  0
  9 10  4  0  0  0  0
 10 11  4  0  0  0  0
 11 12  4  0  0  0  0
 12 13  1  0  0  0  0
 13 14  4  0  0  0  0
 14 15  4  0  0  0  0
 15 16  4  0  0  0  0
 16 17  1  0  0  0  0
 16 18  4  0  0  0  0
 18 19  4  0  0  0  0
 13 19  4  0  0  0  0
 12 20  4  0  0  0  0
 20 21  4  0  0  0  0
  9 21  4  0  0  0  0
 21 22  1  0  0  0  0
  5 23  1  0  0  0  0
 23 24  1  0  0  0  0
 24 25  1  0  0  0  0
  4 25  1  0  0  0  0
M  END
> <IC50(uM)>
2.9

> <Outcome>
0.0

> <BindingDB ID>
50251706

> <BindingDB MonomerID>
50137291

> <BindingDB Ligand Name>
2-(4'-Bromo-3-chloro-biphenyl-4-ylcarbamoyl)-cyclopent-1-enecarboxylic acid::CHEMBL154908

> <Curation/DataSource>
ChEMBL

> <Article DOI>
10.1016/j.bmcl.2003.10.021

> <PMID>
14684297

> <Patent Number>
?

> <Authors>
Leban, J; Saeb, W; Garcia, G; Baumgartner, R; Kramer, B

> <Link to Ligand in BindingDB>
http://www.bindingdb.org/bind/chemsearch/marvin/MolStructure.jsp?monomerid=50137291

> <Link to Ligand-Target Pair in BindingDB>
http://www.bindingdb.org/jsp/dbsearch/PrimarySearch_ki.jsp?energyterm=kJ/mole&tag=r21&monomerid=50137291&enzyme=Dihydroorotate+dehydrogenase&column=ki&startPg=0&Increment=50&submit=Search

> <PubChem CID>
44369777

> <PubChem SID>
104027457

$$$$

  Mrv2115 07222212352D          

 26 29  0  0  0  0            999 V2000
    4.0668    2.3479    0.0000 C   0  0  0  0  0  0  0  0  0  0  0  0
    3.3523    1.9354    0.0000 C   0  0  0  0  0  0  0  0  0  0  0  0
    3.3523    1.1104    0.0000 C   0  0  0  0  0  0  0  0  0  0  0  0
    2.6378    0.6979    0.0000 C   0  0  0  0  0  0  0  0  0  0  0  0
    2.6378   -0.1271    0.0000 C   0  0  0  0  0  0  0  0  0  0  0  0
    1.9233   -0.5396    0.0000 O   0  0  0  0  0  0  0  0  0  0  0  0
    3.3523   -0.5396    0.0000 O   0  0  0  0  0  0  0  0  0  0  0  0
    1.9233    1.1104    0.0000 C   0  0  0  0  0  0  0  0  0  0  0  0
    1.1387    0.8555    0.0000 N   0  0  0  0  0  0  0  0  0  0  0  0
    0.6538    1.5229    0.0000 C   0  0  0  0  0  0  0  0  0  0  0  0
   -0.1712    1.5229    0.0000 C   0  0  0  0  0  0  0  0  0  0  0  0
   -0.5837    0.8085    0.0000 C   0  0  0  0  0  0  0  0  0  0  0  0
   -1.4087    0.8085    0.0000 C   0  0  0  0  0  0  0  0  0  0  0  0
   -1.8212    1.5229    0.0000 C   0  0  0  0  0  0  0  0  0  0  0  0
   -2.6462    1.5229    0.0000 C   0  0  0  0  0  0  0  0  0  0  0  0
   -3.0587    0.8085    0.0000 C   0  0  0  0  0  0  0  0  0  0  0  0
   -3.8837    0.8085    0.0000 C   0  0  0  0  0  0  0  0  0  0  0  0
   -4.2962    1.5229    0.0000 C   0  0  0  0  0  0  0  0  0  0  0  0
   -3.8837    2.2374    0.0000 C   0  0  0  0  0  0  0  0  0  0  0  0
   -4.2962    2.9519    0.0000 O   0  0  0  0  0  0  0  0  0  0  0  0
   -3.0587    2.2374    0.0000 C   0  0  0  0  0  0  0  0  0  0  0  0
   -1.4087    2.2374    0.0000 C   0  0  0  0  0  0  0  0  0  0  0  0
   -0.5837    2.2374    0.0000 C   0  0  0  0  0  0  0  0  0  0  0  0
    1.1387    2.1904    0.0000 N   0  0  0  0  0  0  0  0  0  0  0  0
    1.9233    1.9354    0.0000 C   0  0  0  0  0  0  0  0  0  0  0  0
    2.6378    2.3479    0.0000 C   0  0  0  0  0  0  0  0  0  0  0  0
  1  2  1  0  0  0  0
  2  3  4  0  0  0  0
  3  4  4  0  0  0  0
  4  5  1  0  0  0  0
  5  6  2  0  0  0  0
  5  7  1  0  0  0  0
  4  8  4  0  0  0  0
  8  9  4  0  0  0  0
  9 10  4  0  0  0  0
 10 11  1  0  0  0  0
 11 12  4  0  0  0  0
 12 13  4  0  0  0  0
 13 14  4  0  0  0  0
 14 15  1  0  0  0  0
 15 16  4  0  0  0  0
 16 17  4  0  0  0  0
 17 18  4  0  0  0  0
 18 19  4  0  0  0  0
 19 20  1  0  0  0  0
 19 21  4  0  0  0  0
 15 21  4  0  0  0  0
 14 22  4  0  0  0  0
 22 23  4  0  0  0  0
 11 23  4  0  0  0  0
 10 24  4  0  0  0  0
 24 25  4  0  0  0  0
  8 25  4  0  0  0  0
 25 26  4  0  0  0  0
  2 26  4  0  0  0  0
M  STY  1   1 DAT
M  SAL   1  1  24
M  SDT   1 MRV_IMPLICIT_H                                        
M  SDD   1     0.5304   -0.4125    DR    ALL  0       0  
M  SED   1 IMPL_H1
M  END
> <IC50(uM)>
0.862

> <Outcome>
1.0

> <BindingDB ID>
297818

> <BindingDB MonomerID>
155474

> <BindingDB Ligand Name>
US9006454, I116

> <Curation/DataSource>
US Patent

> <Article DOI>
?

> <PMID>
?

> <Patent Number>
US9006454

> <Authors>
Thunuguntla, SS; Subramanya, H; Kunnam, SR; Sanivaru Vijay, SR; Bingi, C; Kusanur, R; Schwarz, M; Arlt, M

> <Link to Ligand in BindingDB>
http://www.bindingdb.org/bind/chemsearch/marvin/MolStructure.jsp?monomerid=155474

> <Link to Ligand-Target Pair in BindingDB>
http://www.bindingdb.org/jsp/dbsearch/PrimarySearch_ki.jsp?energyterm=kJ/mole&tag=r21&monomerid=155474&enzyme=Dihydroorotate+dehydrogenase&column=ki&startPg=0&Increment=50&submit=Search

> <PubChem CID>
58073812

> <PubChem SID>
253658411

$$$$

  Mrv2115 07222212352D          

 21 22  0  0  0  0            999 V2000
    2.1434   -1.2375    0.0000 C   0  0  0  0  0  0  0  0  0  0  0  0
    1.4289   -1.6500    0.0000 O   0  0  0  0  0  0  0  0  0  0  0  0
    1.4289   -2.4750    0.0000 C   0  0  0  0  0  0  0  0  0  0  0  0
    2.1434   -2.8875    0.0000 C   0  0  0  0  0  0  0  0  0  0  0  0
    2.1434   -3.7125    0.0000 C   0  0  0  0  0  0  0  0  0  0  0  0
    1.4289   -4.1250    0.0000 C   0  0  0  0  0  0  0  0  0  0  0  0
    0.7145   -3.7125    0.0000 C   0  0  0  0  0  0  0  0  0  0  0  0
    0.0000   -4.1250    0.0000 C   0  0  0  0  0  0  0  0  0  0  0  0
    0.0000   -4.9500    0.0000 C   0  0  0  0  0  0  0  0  0  0  0  0
   -0.7145   -5.3625    0.0000 C   0  0  0  0  0  0  0  0  0  0  0  0
   -0.7145   -6.1875    0.0000 C   0  0  0  0  0  0  0  0  0  0  0  0
   -0.0000   -6.6000    0.0000 C   0  0  0  0  0  0  0  0  0  0  0  0
   -0.0000   -7.4250    0.0000 O   0  0  0  0  0  0  0  0  0  0  0  0
    0.7145   -6.1875    0.0000 O   0  0  0  0  0  0  0  0  0  0  0  0
   -1.4289   -6.6000    0.0000 N   0  0  0  0  0  0  0  0  0  0  0  0
   -2.1434   -6.1875    0.0000 C   0  0  0  0  0  0  0  0  0  0  0  0
   -2.8579   -6.6000    0.0000 O   0  0  0  0  0  0  0  0  0  0  0  0
   -2.1434   -5.3625    0.0000 N   0  0  0  0  0  0  0  0  0  0  0  0
   -1.4289   -4.9500    0.0000 C   0  0  0  0  0  0  0  0  0  0  0  0
   -1.4289   -4.1250    0.0000 O   0  0  0  0  0  0  0  0  0  0  0  0
    0.7145   -2.8875    0.0000 C   0  0  0  0  0  0  0  0  0  0  0  0
  1  2  1  0  0  0  0
  2  3  1  0  0  0  0
  3  4  4  0  0  0  0
  4  5  4  0  0  0  0
  5  6  4  0  0  0  0
  6  7  4  0  0  0  0
  7  8  1  0  0  0  0
  8  9  1  0  0  0  0
  9 10  1  0  0  0  0
 10 11  4  0  0  0  0
 11 12  1  0  0  0  0
 12 13  2  0  0  0  0
 12 14  1  0  0  0  0
 11 15  4  0  0  0  0
 15 16  4  0  0  0  0
 16 17  2  0  0  0  0
 16 18  4  0  0  0  0
 18 19  4  0  0  0  0
 10 19  4  0  0  0  0
 19 20  2  0  0  0  0
  7 21  4  0  0  0  0
  3 21  4  0  0  0  0
M  STY  2   1 DAT   2 DAT
M  SAL   1  1  15
M  SDT   1 MRV_IMPLICIT_H                                        
M  SDD   1     0.6482   -0.4125    DR    ALL  0       0  
M  SED   1 IMPL_H1
M  SAL   2  1  18
M  SDT   2 MRV_IMPLICIT_H                                        
M  SDD   2     0.5304   -0.4125    DR    ALL  0       0  
M  SED   2 IMPL_H1
M  END
> <IC50(uM)>
0.968

> <Outcome>
1.0

> <BindingDB ID>
50555408

> <BindingDB MonomerID>
50211955

> <BindingDB Ligand Name>
CHEMBL3978933

> <Curation/DataSource>
ChEMBL

> <Article DOI>
10.1016/j.bmc.2017.01.009

> <PMID>
28118956

> <Patent Number>
?

> <Authors>
Inaoka, DK; Iida, M; Hashimoto, S; Tabuchi, T; Kuranaga, T; Balogun, EO; Honma, T; Tanaka, A; Harada, S; Nara, T; Kita, K; Inoue, M

> <Link to Ligand in BindingDB>
http://www.bindingdb.org/bind/chemsearch/marvin/MolStructure.jsp?monomerid=50211955

> <Link to Ligand-Target Pair in BindingDB>
http://www.bindingdb.org/jsp/dbsearch/PrimarySearch_ki.jsp?energyterm=kJ/mole&tag=r21&monomerid=50211955&enzyme=Dihydroorotate+dehydrogenase&column=ki&startPg=0&Increment=50&submit=Search

> <PubChem CID>
134151822

> <PubChem SID>
375983078

$$$$

  Mrv2115 07222212352D          

 22 24  0  0  0  0            999 V2000
   -0.1712    0.7310    0.0000 O   0  0  0  0  0  0  0  0  0  0  0  0
   -0.5837    0.0165    0.0000 C   0  0  0  0  0  0  0  0  0  0  0  0
   -0.1712   -0.6979    0.0000 N   0  0  0  0  0  0  0  0  0  0  0  0
    0.6538   -0.6979    0.0000 C   0  0  0  0  0  0  0  0  0  0  0  0
    1.1387   -0.0305    0.0000 N   0  0  0  0  0  0  0  0  0  0  0  0
    1.9233   -0.2854    0.0000 C   0  0  0  0  0  0  0  0  0  0  0  0
    2.6378    0.1271    0.0000 C   0  0  0  0  0  0  0  0  0  0  0  0
    3.3523   -0.2854    0.0000 C   0  0  0  0  0  0  0  0  0  0  0  0
    3.3523   -1.1104    0.0000 C   0  0  0  0  0  0  0  0  0  0  0  0
    2.6378   -1.5229    0.0000 C   0  0  0  0  0  0  0  0  0  0  0  0
    1.9233   -1.1104    0.0000 C   0  0  0  0  0  0  0  0  0  0  0  0
    1.1387   -1.3654    0.0000 S   0  0  0  0  0  0  0  0  0  0  0  0
   -1.4087    0.0165    0.0000 C   0  0  0  0  0  0  0  0  0  0  0  0
   -1.8212   -0.6979    0.0000 C   0  0  0  0  0  0  0  0  0  0  0  0
   -2.6462   -0.6979    0.0000 C   0  0  0  0  0  0  0  0  0  0  0  0
   -3.0587    0.0165    0.0000 C   0  0  0  0  0  0  0  0  0  0  0  0
   -2.6462    0.7310    0.0000 C   0  0  0  0  0  0  0  0  0  0  0  0
   -3.0587    1.4455    0.0000 C   0  0  0  0  0  0  0  0  0  0  0  0
   -3.4712    2.1599    0.0000 Cl  0  0  0  0  0  0  0  0  0  0  0  0
   -2.3442    1.8580    0.0000 Cl  0  0  0  0  0  0  0  0  0  0  0  0
   -3.7732    1.0330    0.0000 Cl  0  0  0  0  0  0  0  0  0  0  0  0
   -1.8212    0.7310    0.0000 C   0  0  0  0  0  0  0  0  0  0  0  0
  1  2  2  0  0  0  0
  2  3  1  0  0  0  0
  3  4  1  0  0  0  0
  4  5  4  0  0  0  0
  5  6  4  0  0  0  0
  6  7  4  0  0  0  0
  7  8  4  0  0  0  0
  8  9  4  0  0  0  0
  9 10  4  0  0  0  0
 10 11  4  0  0  0  0
  6 11  4  0  0  0  0
 11 12  4  0  0  0  0
  4 12  4  0  0  0  0
  2 13  1  0  0  0  0
 13 14  4  0  0  0  0
 14 15  4  0  0  0  0
 15 16  4  0  0  0  0
 16 17  4  0  0  0  0
 17 18  1  0  0  0  0
 18 19  1  0  0  0  0
 18 20  1  0  0  0  0
 18 21  1  0  0  0  0
 17 22  4  0  0  0  0
 13 22  4  0  0  0  0
M  END
> <IC50(uM)>
0.34

> <Outcome>
1.0

> <BindingDB ID>
50971946

> <BindingDB MonomerID>
50398643

> <BindingDB Ligand Name>
CHEMBL2178105

> <Curation/DataSource>
ChEMBL

> <Article DOI>
10.1021/jm300630p

> <PMID>
22984987

> <Patent Number>
?

> <Authors>
Diao, Y; Lu, W; Jin, H; Zhu, J; Han, L; Xu, M; Gao, R; Shen, X; Zhao, Z; Liu, X; Xu, Y; Huang, J; Li, H

> <Link to Ligand in BindingDB>
http://www.bindingdb.org/bind/chemsearch/marvin/MolStructure.jsp?monomerid=50398643

> <Link to Ligand-Target Pair in BindingDB>
http://www.bindingdb.org/jsp/dbsearch/PrimarySearch_ki.jsp?energyterm=kJ/mole&tag=r21&monomerid=50398643&enzyme=Dihydroorotate+dehydrogenase&column=ki&startPg=0&Increment=50&submit=Search

> <PubChem CID>
1037067

> <PubChem SID>
163347667

$$$$

  Mrv2115 07222212352D          

 27 30  0  0  0  0            999 V2000
   -0.1712   -0.6979    0.0000 C   0  0  0  0  0  0  0  0  0  0  0  0
    0.6538   -0.6979    0.0000 C   0  0  0  0  0  0  0  0  0  0  0  0
    1.1387   -0.0305    0.0000 N   0  0  0  0  0  0  0  0  0  0  0  0
    1.9233   -0.2854    0.0000 C   0  0  0  0  0  0  0  0  0  0  0  0
    2.6378    0.1271    0.0000 C   0  0  0  0  0  0  0  0  0  0  0  0
    2.6378    0.9521    0.0000 C   0  0  0  0  0  0  0  0  0  0  0  0
    3.3523    1.3646    0.0000 O   0  0  0  0  0  0  0  0  0  0  0  0
    1.9233    1.3646    0.0000 O   0  0  0  0  0  0  0  0  0  0  0  0
    3.3523   -0.2854    0.0000 C   0  0  0  0  0  0  0  0  0  0  0  0
    3.3523   -1.1104    0.0000 C   0  0  0  0  0  0  0  0  0  0  0  0
    4.0668   -1.5229    0.0000 C   0  0  0  0  0  0  0  0  0  0  0  0
    4.7812   -1.1104    0.0000 C   0  0  0  0  0  0  0  0  0  0  0  0
    5.4957   -1.5229    0.0000 C   0  0  0  0  0  0  0  0  0  0  0  0
    5.4957   -2.3479    0.0000 C   0  0  0  0  0  0  0  0  0  0  0  0
    6.2102   -2.7604    0.0000 C   0  0  0  0  0  0  0  0  0  0  0  0
    6.9246   -2.3479    0.0000 C   0  0  0  0  0  0  0  0  0  0  0  0
    6.9246   -1.5229    0.0000 C   0  0  0  0  0  0  0  0  0  0  0  0
    7.6391   -2.7604    0.0000 C   0  0  0  0  0  0  0  0  0  0  0  0
    7.6391   -3.5854    0.0000 C   0  0  0  0  0  0  0  0  0  0  0  0
    6.9246   -3.9979    0.0000 C   0  0  0  0  0  0  0  0  0  0  0  0
    6.2102   -3.5854    0.0000 C   0  0  0  0  0  0  0  0  0  0  0  0
    5.4957   -3.9979    0.0000 C   0  0  0  0  0  0  0  0  0  0  0  0
    4.7812   -2.7604    0.0000 C   0  0  0  0  0  0  0  0  0  0  0  0
    4.0668   -2.3479    0.0000 C   0  0  0  0  0  0  0  0  0  0  0  0
    2.6378   -1.5229    0.0000 C   0  0  0  0  0  0  0  0  0  0  0  0
    1.9233   -1.1104    0.0000 C   0  0  0  0  0  0  0  0  0  0  0  0
    1.1387   -1.3654    0.0000 N   0  0  0  0  0  0  0  0  0  0  0  0
  1  2  1  0  0  0  0
  2  3  4  0  0  0  0
  3  4  4  0  0  0  0
  4  5  4  0  0  0  0
  5  6  1  0  0  0  0
  6  7  2  0  0  0  0
  6  8  1  0  0  0  0
  5  9  4  0  0  0  0
  9 10  4  0  0  0  0
 10 11  1  0  0  0  0
 11 12  4  0  0  0  0
 12 13  4  0  0  0  0
 13 14  4  0  0  0  0
 14 15  1  0  0  0  0
 15 16  4  0  0  0  0
 16 17  1  0  0  0  0
 16 18  4  0  0  0  0
 18 19  4  0  0  0  0
 19 20  4  0  0  0  0
 20 21  4  0  0  0  0
 15 21  4  0  0  0  0
 21 22  1  0  0  0  0
 14 23  4  0  0  0  0
 23 24  4  0  0  0  0
 11 24  4  0  0  0  0
 10 25  4  0  0  0  0
 25 26  4  0  0  0  0
  4 26  4  0  0  0  0
 26 27  4  0  0  0  0
  2 27  4  0  0  0  0
M  STY  1   1 DAT
M  SAL   1  1  27
M  SDT   1 MRV_IMPLICIT_H                                        
M  SDD   1     0.5304   -0.4125    DR    ALL  0       0  
M  SED   1 IMPL_H1
M  END
> <IC50(uM)>
0.055

> <Outcome>
1.0

> <BindingDB ID>
1045615

> <BindingDB MonomerID>
501673

> <BindingDB Ligand Name>
US11028054, Example 145

> <Curation/DataSource>
US Patent

> <Article DOI>
?

> <PMID>
?

> <Patent Number>
US11028054

> <Authors>
Thunuguntla, SS; Hosahalli, S; Panigrahi, SK; Schwarz, M; Arit, M

> <Link to Ligand in BindingDB>
http://www.bindingdb.org/bind/chemsearch/marvin/MolStructure.jsp?monomerid=501673

> <Link to Ligand-Target Pair in BindingDB>
http://www.bindingdb.org/jsp/dbsearch/PrimarySearch_ki.jsp?energyterm=kJ/mole&tag=r21&monomerid=501673&enzyme=Dihydroorotate+dehydrogenase&column=ki&startPg=0&Increment=50&submit=Search

> <PubChem CID>
?

> <PubChem SID>
?

$$$$

  Mrv2115 07222212352D          

 29 32  0  0  0  0            999 V2000
    2.1434   -2.8875    0.0000 O   0  0  0  0  0  0  0  0  0  0  0  0
    1.4289   -2.4750    0.0000 C   0  0  0  0  0  0  0  0  0  0  0  0
    0.7145   -2.8875    0.0000 O   0  0  0  0  0  0  0  0  0  0  0  0
    1.4289   -1.6500    0.0000 C   0  0  0  0  0  0  0  0  0  0  0  0
    0.7145   -1.2375    0.0000 C   0  0  0  0  0  0  0  0  0  0  0  0
    0.7145   -0.4125    0.0000 C   0  0  0  0  0  0  0  0  0  0  0  0
    0.0000    0.0000    0.0000 C   0  0  0  0  0  0  0  0  0  0  0  0
   -0.7145   -0.4125    0.0000 C   0  0  0  0  0  0  0  0  0  0  0  0
   -1.4289    0.0000    0.0000 C   0  0  0  0  0  0  0  0  0  0  0  0
   -1.4289    0.8250    0.0000 C   0  0  0  0  0  0  0  0  0  0  0  0
   -2.1434    1.2375    0.0000 C   0  0  0  0  0  0  0  0  0  0  0  0
   -2.8579    0.8250    0.0000 C   0  0  0  0  0  0  0  0  0  0  0  0
   -3.5724    1.2375    0.0000 N   0  0  0  0  0  0  0  0  0  0  0  0
   -3.5724    2.0625    0.0000 C   0  0  0  0  0  0  0  0  0  0  0  0
   -2.8579    2.4750    0.0000 C   0  0  0  0  0  0  0  0  0  0  0  0
   -2.1434    2.0625    0.0000 C   0  0  0  0  0  0  0  0  0  0  0  0
   -1.4289    2.4750    0.0000 C   0  0  0  0  0  0  0  0  0  0  0  0
   -0.7145    2.8875    0.0000 F   0  0  0  0  0  0  0  0  0  0  0  0
   -1.0164    1.7605    0.0000 F   0  0  0  0  0  0  0  0  0  0  0  0
   -1.8414    3.1895    0.0000 F   0  0  0  0  0  0  0  0  0  0  0  0
   -0.7145    1.2375    0.0000 C   0  0  0  0  0  0  0  0  0  0  0  0
    0.0000    0.8250    0.0000 C   0  0  0  0  0  0  0  0  0  0  0  0
    1.4289    0.0000    0.0000 N   0  0  0  0  0  0  0  0  0  0  0  0
    2.1434   -0.4125    0.0000 C   0  0  0  0  0  0  0  0  0  0  0  0
    2.8579    0.0000    0.0000 C   0  0  0  0  0  0  0  0  0  0  0  0
    3.5724   -0.4125    0.0000 C   0  0  0  0  0  0  0  0  0  0  0  0
    3.5724   -1.2375    0.0000 C   0  0  0  0  0  0  0  0  0  0  0  0
    2.8579   -1.6500    0.0000 C   0  0  0  0  0  0  0  0  0  0  0  0
    2.1434   -1.2375    0.0000 C   0  0  0  0  0  0  0  0  0  0  0  0
  1  2  2  0  0  0  0
  2  3  1  0  0  0  0
  2  4  1  0  0  0  0
  4  5  4  0  0  0  0
  5  6  4  0  0  0  0
  6  7  1  0  0  0  0
  7  8  4  0  0  0  0
  8  9  4  0  0  0  0
  9 10  4  0  0  0  0
 10 11  1  0  0  0  0
 11 12  4  0  0  0  0
 12 13  4  0  0  0  0
 13 14  4  0  0  0  0
 14 15  4  0  0  0  0
 15 16  4  0  0  0  0
 11 16  4  0  0  0  0
 16 17  1  0  0  0  0
 17 18  1  0  0  0  0
 17 19  1  0  0  0  0
 17 20  1  0  0  0  0
 10 21  4  0  0  0  0
 21 22  4  0  0  0  0
  7 22  4  0  0  0  0
  6 23  4  0  0  0  0
 23 24  4  0  0  0  0
 24 25  4  0  0  0  0
 25 26  4  0  0  0  0
 26 27  4  0  0  0  0
 27 28  4  0  0  0  0
 28 29  4  0  0  0  0
  4 29  4  0  0  0  0
 24 29  4  0  0  0  0
M  END
> <IC50(uM)>
1.43

> <Outcome>
0.0

> <BindingDB ID>
51126200

> <BindingDB MonomerID>
50461886

> <BindingDB Ligand Name>
CHEMBL4227592

> <Curation/DataSource>
ChEMBL

> <Article DOI>
10.1021/acs.jmedchem.7b01862

> <PMID>
29727569

> <Patent Number>
?

> <Authors>
Madak, JT; Cuthbertson, CR; Miyata, Y; Tamura, S; Petrunak, EM; Stuckey, JA; Han, Y; He, M; Sun, D; Showalter, HD; Neamati, N

> <Link to Ligand in BindingDB>
http://www.bindingdb.org/bind/chemsearch/marvin/MolStructure.jsp?monomerid=50461886

> <Link to Ligand-Target Pair in BindingDB>
http://www.bindingdb.org/jsp/dbsearch/PrimarySearch_ki.jsp?energyterm=kJ/mole&tag=r21&monomerid=50461886&enzyme=Dihydroorotate+dehydrogenase&column=ki&startPg=0&Increment=50&submit=Search

> <PubChem CID>
145969991

> <PubChem SID>
433929151

$$$$

  Mrv2115 07222212352D          

 26 28  0  0  0  0            999 V2000
   -2.1434   -1.2375    0.0000 C   0  0  0  0  0  0  0  0  0  0  0  0
   -2.8579   -1.6500    0.0000 O   0  0  0  0  0  0  0  0  0  0  0  0
   -2.8579   -2.4750    0.0000 C   0  0  0  0  0  0  0  0  0  0  0  0
   -2.1434   -2.8875    0.0000 C   0  0  0  0  0  0  0  0  0  0  0  0
   -2.1434   -3.7125    0.0000 C   0  0  0  0  0  0  0  0  0  0  0  0
   -2.8579   -4.1250    0.0000 C   0  0  0  0  0  0  0  0  0  0  0  0
   -3.5724   -3.7125    0.0000 C   0  0  0  0  0  0  0  0  0  0  0  0
   -4.2868   -4.1250    0.0000 C   0  0  0  0  0  0  0  0  0  0  0  0
   -4.2868   -4.9500    0.0000 C   0  0  0  0  0  0  0  0  0  0  0  0
   -5.0013   -5.3625    0.0000 C   0  0  0  0  0  0  0  0  0  0  0  0
   -5.0013   -6.1875    0.0000 F   0  0  0  0  0  0  0  0  0  0  0  0
   -5.7158   -4.9500    0.0000 C   0  0  0  0  0  0  0  0  0  0  0  0
   -6.4302   -5.3625    0.0000 N   0  0  0  0  0  0  0  0  0  0  0  0
   -6.4302   -6.1875    0.0000 C   0  0  0  0  0  0  0  0  0  0  0  0
   -5.7158   -6.6000    0.0000 N   0  0  0  0  0  0  0  0  0  0  0  0
   -5.7158   -7.4250    0.0000 C   0  0  0  0  0  0  0  0  0  0  0  0
   -6.4302   -7.8375    0.0000 C   0  0  0  0  0  0  0  0  0  0  0  0
   -7.1447   -7.4250    0.0000 C   0  0  0  0  0  0  0  0  0  0  0  0
   -7.1447   -6.6000    0.0000 C   0  0  0  0  0  0  0  0  0  0  0  0
   -7.8592   -6.1875    0.0000 C   0  0  0  0  0  0  0  0  0  0  0  0
   -7.8592   -5.3625    0.0000 O   0  0  0  0  0  0  0  0  0  0  0  0
   -8.5737   -6.6000    0.0000 O   0  0  0  0  0  0  0  0  0  0  0  0
   -5.7158   -4.1250    0.0000 C   0  0  0  0  0  0  0  0  0  0  0  0
   -6.4302   -3.7125    0.0000 F   0  0  0  0  0  0  0  0  0  0  0  0
   -5.0013   -3.7125    0.0000 C   0  0  0  0  0  0  0  0  0  0  0  0
   -3.5724   -2.8875    0.0000 C   0  0  0  0  0  0  0  0  0  0  0  0
  1  2  1  0  0  0  0
  2  3  1  0  0  0  0
  3  4  4  0  0  0  0
  4  5  4  0  0  0  0
  5  6  4  0  0  0  0
  6  7  4  0  0  0  0
  7  8  1  0  0  0  0
  8  9  4  0  0  0  0
  9 10  4  0  0  0  0
 10 11  1  0  0  0  0
 10 12  4  0  0  0  0
 12 13  1  0  0  0  0
 13 14  1  0  0  0  0
 14 15  4  0  0  0  0
 15 16  4  0  0  0  0
 16 17  4  0  0  0  0
 17 18  4  0  0  0  0
 18 19  4  0  0  0  0
 14 19  4  0  0  0  0
 19 20  1  0  0  0  0
 20 21  2  0  0  0  0
 20 22  1  0  0  0  0
 12 23  4  0  0  0  0
 23 24  1  0  0  0  0
 23 25  4  0  0  0  0
  8 25  4  0  0  0  0
  7 26  4  0  0  0  0
  3 26  4  0  0  0  0
M  END
> <IC50(uM)>
0.015

> <Outcome>
1.0

> <BindingDB ID>
51186828; 246905

> <BindingDB MonomerID>
119812

> <BindingDB Ligand Name>
US8691852, 20

> <Curation/DataSource>
ChEMBL; US Patent

> <Article DOI>
10.1007/s00044-011-9837-4; ?

> <PMID>
?

> <Patent Number>
?; US8691852

> <Authors>
n/a; Castro Palomino Laria, JC; Erra Sola, M; Lozoya Toribio, ME; Navarro Romero, E

> <Link to Ligand in BindingDB>
http://www.bindingdb.org/bind/chemsearch/marvin/MolStructure.jsp?monomerid=119812

> <Link to Ligand-Target Pair in BindingDB>
http://www.bindingdb.org/jsp/dbsearch/PrimarySearch_ki.jsp?energyterm=kJ/mole&tag=r21&monomerid=119812&enzyme=Dihydroorotate+dehydrogenase&column=ki&startPg=0&Increment=50&submit=Search

> <PubChem CID>
24986824

> <PubChem SID>
220230606

$$$$

  Mrv2115 07222212352D          

 36 39  0  0  0  0            999 V2000
   -7.6409    0.0165    0.0000 C   0  0  0  0  0  0  0  0  0  0  0  0
   -6.8159    0.0165    0.0000 C   0  0  0  0  0  0  0  0  0  0  0  0
   -6.4034   -0.6979    0.0000 C   0  0  0  0  0  0  0  0  0  0  0  0
   -5.5784   -0.6979    0.0000 C   0  0  0  0  0  0  0  0  0  0  0  0
   -5.1659   -1.4124    0.0000 C   0  0  0  0  0  0  0  0  0  0  0  0
   -5.1659    0.0165    0.0000 C   0  0  0  0  0  0  0  0  0  0  0  0
   -4.3409    0.0165    0.0000 N   0  0  0  0  0  0  0  0  0  0  0  0
   -3.9284   -0.6979    0.0000 C   0  0  0  0  0  0  0  0  0  0  0  0
   -4.3409   -1.4124    0.0000 O   0  0  0  0  0  0  0  0  0  0  0  0
   -3.1034   -0.6979    0.0000 C   0  0  0  0  0  0  0  0  0  0  0  0
   -2.6909    0.0165    0.0000 C   0  0  0  0  0  0  0  0  0  0  0  0
   -1.8659    0.0165    0.0000 C   0  0  0  0  0  0  0  0  0  0  0  0
   -1.4534    0.7310    0.0000 F   0  0  0  0  0  0  0  0  0  0  0  0
   -1.4534   -0.6979    0.0000 C   0  0  0  0  0  0  0  0  0  0  0  0
   -0.6284   -0.6979    0.0000 N   0  0  0  0  0  0  0  0  0  0  0  0
   -0.1435   -1.3654    0.0000 N   0  0  0  0  0  0  0  0  0  0  0  0
    0.6411   -1.1104    0.0000 C   0  0  0  0  0  0  0  0  0  0  0  0
    0.6411   -0.2854    0.0000 N   0  0  0  0  0  0  0  0  0  0  0  0
   -0.1435   -0.0305    0.0000 C   0  0  0  0  0  0  0  0  0  0  0  0
   -0.3984    0.7541    0.0000 O   0  0  0  0  0  0  0  0  0  0  0  0
    1.3556    0.1271    0.0000 C   0  0  0  0  0  0  0  0  0  0  0  0
    2.0701   -0.2854    0.0000 C   0  0  0  0  0  0  0  0  0  0  0  0
    2.0701   -1.1104    0.0000 C   0  0  0  0  0  0  0  0  0  0  0  0
    1.3556   -1.5229    0.0000 C   0  0  0  0  0  0  0  0  0  0  0  0
   -1.8659   -1.4124    0.0000 C   0  0  0  0  0  0  0  0  0  0  0  0
   -2.6909   -1.4124    0.0000 C   0  0  0  0  0  0  0  0  0  0  0  0
   -3.1034   -2.1269    0.0000 O   0  0  0  0  0  0  0  0  0  0  0  0
   -2.6909   -2.8414    0.0000 C   0  0  0  0  0  0  0  0  0  0  0  0
   -1.8659   -2.8414    0.0000 C   0  0  0  0  0  0  0  0  0  0  0  0
   -3.1034   -3.5558    0.0000 C   0  0  0  0  0  0  0  0  0  0  0  0
   -3.8179   -3.1433    0.0000 F   0  0  0  0  0  0  0  0  0  0  0  0
   -2.3890   -3.9683    0.0000 F   0  0  0  0  0  0  0  0  0  0  0  0
   -3.5159   -4.2703    0.0000 F   0  0  0  0  0  0  0  0  0  0  0  0
   -5.5784    0.7310    0.0000 C   0  0  0  0  0  0  0  0  0  0  0  0
   -5.1659    1.4455    0.0000 C   0  0  0  0  0  0  0  0  0  0  0  0
   -6.4034    0.7310    0.0000 N   0  0  0  0  0  0  0  0  0  0  0  0
  1  2  1  0  0  0  0
  2  3  4  0  0  0  0
  3  4  4  0  0  0  0
  4  5  1  0  0  0  0
  4  6  4  0  0  0  0
  6  7  1  0  0  0  0
  7  8  1  0  0  0  0
  8  9  2  0  0  0  0
  8 10  1  0  0  0  0
 10 11  4  0  0  0  0
 11 12  4  0  0  0  0
 12 13  1  0  0  0  0
 12 14  4  0  0  0  0
 14 15  1  0  0  0  0
 15 16  4  0  0  0  0
 16 17  4  0  0  0  0
 17 18  4  0  0  0  0
 18 19  4  0  0  0  0
 15 19  4  0  0  0  0
 19 20  2  0  0  0  0
 18 21  1  0  0  0  0
 21 22  1  0  0  0  0
 22 23  1  0  0  0  0
 23 24  1  0  0  0  0
 17 24  1  0  0  0  0
 14 25  4  0  0  0  0
 25 26  4  0  0  0  0
 10 26  4  0  0  0  0
 26 27  1  0  0  0  0
 27 28  1  0  0  0  0
 28 29  1  0  0  0  0
 28 30  1  0  0  0  0
 30 31  1  0  0  0  0
 30 32  1  0  0  0  0
 30 33  1  0  0  0  0
  6 34  4  0  0  0  0
 34 35  1  0  0  0  0
 34 36  4  0  0  0  0
  2 36  4  0  0  0  0
M  END
> <IC50(uM)>
0.12

> <Outcome>
1.0

> <BindingDB ID>
1020448

> <BindingDB MonomerID>
490399

> <BindingDB Ligand Name>
5-fluoro-4-(3-oxo-5,6,7,8-tetrahydro[1,2,4]triazolo[4,3-a]pyridin-2(3H)-yl)-2-{[(2S)-1,1,1-trifluoropropan-2-yl]oxy}-N-(2,4,6-trimethylpyridin-3-yl)benzamide::US10968216, Example 67

> <Curation/DataSource>
US Patent

> <Article DOI>
?

> <PMID>
?

> <Patent Number>
US10968216

> <Authors>
Gradl, SN; Nguyen, D; Eis, K; Gunther, J; Stellfeld, T; Janzer, A; Christian, S; Mueller, T; Sheikh, SE; Zhou, HJ; Zhao, C; Sykes, DB; Ferrara, SJ; Liu, K; Herbert, SA; Merz, C; Niehues, M; Nising, CF; Schafer, M; Zimmermann, K; Knablein, J; Thede, K; Faupel, T

> <Link to Ligand in BindingDB>
http://www.bindingdb.org/bind/chemsearch/marvin/MolStructure.jsp?monomerid=490399

> <Link to Ligand-Target Pair in BindingDB>
http://www.bindingdb.org/jsp/dbsearch/PrimarySearch_ki.jsp?energyterm=kJ/mole&tag=r21&monomerid=490399&enzyme=Dihydroorotate+dehydrogenase&column=ki&startPg=0&Increment=50&submit=Search

> <PubChem CID>
134474298

> <PubChem SID>
447117126

$$$$

  Mrv2115 07222212352D          

 24 25  0  0  0  0            999 V2000
    0.7145   -1.2375    0.0000 O   0  0  0  0  0  0  0  0  0  0  0  0
    1.4289   -1.6500    0.0000 C   0  0  0  0  0  0  0  0  0  0  0  0
    2.1434   -1.2375    0.0000 O   0  0  0  0  0  0  0  0  0  0  0  0
    1.4289   -2.4750    0.0000 C   0  0  0  0  0  0  0  0  0  0  0  0
    2.1434   -2.8875    0.0000 N   0  0  0  0  0  0  0  0  0  0  0  0
    2.1434   -3.7125    0.0000 C   0  0  0  0  0  0  0  0  0  0  0  0
    2.8579   -4.1250    0.0000 O   0  0  0  0  0  0  0  0  0  0  0  0
    1.4289   -4.1250    0.0000 N   0  0  0  0  0  0  0  0  0  0  0  0
    0.7145   -3.7125    0.0000 C   0  0  0  0  0  0  0  0  0  0  0  0
    0.0000   -4.1250    0.0000 O   0  0  0  0  0  0  0  0  0  0  0  0
    0.7145   -2.8875    0.0000 C   0  0  0  0  0  0  0  0  0  0  0  0
    0.0000   -2.4750    0.0000 C   0  0  0  0  0  0  0  0  0  0  0  0
   -0.7145   -2.8875    0.0000 C   0  0  0  0  0  0  0  0  0  0  0  0
   -1.4289   -2.4750    0.0000 C   0  0  0  0  0  0  0  0  0  0  0  0
   -2.1434   -2.8875    0.0000 C   0  0  0  0  0  0  0  0  0  0  0  0
   -2.8579   -2.4750    0.0000 C   0  0  0  0  0  0  0  0  0  0  0  0
   -2.8579   -1.6500    0.0000 C   0  0  0  0  0  0  0  0  0  0  0  0
   -3.5724   -1.2375    0.0000 O   0  0  0  0  0  0  0  0  0  0  0  0
   -4.2868   -1.6500    0.0000 C   0  0  0  0  0  0  0  0  0  0  0  0
   -5.0013   -2.0625    0.0000 F   0  0  0  0  0  0  0  0  0  0  0  0
   -4.6993   -0.9355    0.0000 F   0  0  0  0  0  0  0  0  0  0  0  0
   -3.8743   -2.3645    0.0000 F   0  0  0  0  0  0  0  0  0  0  0  0
   -2.1434   -1.2375    0.0000 C   0  0  0  0  0  0  0  0  0  0  0  0
   -1.4289   -1.6500    0.0000 C   0  0  0  0  0  0  0  0  0  0  0  0
  1  2  2  0  0  0  0
  2  3  1  0  0  0  0
  2  4  1  0  0  0  0
  4  5  4  0  0  0  0
  5  6  4  0  0  0  0
  6  7  2  0  0  0  0
  6  8  4  0  0  0  0
  8  9  4  0  0  0  0
  9 10  2  0  0  0  0
  9 11  4  0  0  0  0
  4 11  4  0  0  0  0
 11 12  1  0  0  0  0
 12 13  1  0  0  0  0
 13 14  1  0  0  0  0
 14 15  4  0  0  0  0
 15 16  4  0  0  0  0
 16 17  4  0  0  0  0
 17 18  1  0  0  0  0
 18 19  1  0  0  0  0
 19 20  1  0  0  0  0
 19 21  1  0  0  0  0
 19 22  1  0  0  0  0
 17 23  4  0  0  0  0
 23 24  4  0  0  0  0
 14 24  4  0  0  0  0
M  STY  2   1 DAT   2 DAT
M  SAL   1  1   5
M  SDT   1 MRV_IMPLICIT_H                                        
M  SDD   1     0.5304   -0.4125    DR    ALL  0       0  
M  SED   1 IMPL_H1
M  SAL   2  1   8
M  SDT   2 MRV_IMPLICIT_H                                        
M  SDD   2     0.6482   -0.4125    DR    ALL  0       0  
M  SED   2 IMPL_H1
M  END
> <IC50(uM)>
0.082

> <Outcome>
1.0

> <BindingDB ID>
50555407

> <BindingDB MonomerID>
50211787

> <BindingDB Ligand Name>
CHEMBL3986776

> <Curation/DataSource>
ChEMBL

> <Article DOI>
10.1016/j.bmc.2017.01.009

> <PMID>
28118956

> <Patent Number>
?

> <Authors>
Inaoka, DK; Iida, M; Hashimoto, S; Tabuchi, T; Kuranaga, T; Balogun, EO; Honma, T; Tanaka, A; Harada, S; Nara, T; Kita, K; Inoue, M

> <Link to Ligand in BindingDB>
http://www.bindingdb.org/bind/chemsearch/marvin/MolStructure.jsp?monomerid=50211787

> <Link to Ligand-Target Pair in BindingDB>
http://www.bindingdb.org/jsp/dbsearch/PrimarySearch_ki.jsp?energyterm=kJ/mole&tag=r21&monomerid=50211787&enzyme=Dihydroorotate+dehydrogenase&column=ki&startPg=0&Increment=50&submit=Search

> <PubChem CID>
134156366

> <PubChem SID>
375983070

$$$$

  Mrv2115 07222212352D          

 24 27  0  0  0  0            999 V2000
    3.9934    2.4750    0.0000 O   0  0  0  0  0  0  0  0  0  0  0  0
    3.2789    2.0625    0.0000 C   0  0  0  0  0  0  0  0  0  0  0  0
    2.5645    2.4750    0.0000 O   0  0  0  0  0  0  0  0  0  0  0  0
    3.2789    1.2375    0.0000 C   0  0  0  0  0  0  0  0  0  0  0  0
    3.9934    0.8250    0.0000 C   0  0  0  0  0  0  0  0  0  0  0  0
    3.9934    0.0000    0.0000 C   0  0  0  0  0  0  0  0  0  0  0  0
    3.2789   -0.4125    0.0000 C   0  0  0  0  0  0  0  0  0  0  0  0
    2.5645    0.0000    0.0000 N   0  0  0  0  0  0  0  0  0  0  0  0
    1.7798   -0.2549    0.0000 C   0  0  0  0  0  0  0  0  0  0  0  0
    1.2949    0.4125    0.0000 C   0  0  0  0  0  0  0  0  0  0  0  0
    0.4699    0.4125    0.0000 C   0  0  0  0  0  0  0  0  0  0  0  0
    0.0574   -0.3020    0.0000 C   0  0  0  0  0  0  0  0  0  0  0  0
   -0.7676   -0.3020    0.0000 C   0  0  0  0  0  0  0  0  0  0  0  0
   -1.1801    0.4125    0.0000 C   0  0  0  0  0  0  0  0  0  0  0  0
   -2.0051    0.4125    0.0000 C   0  0  0  0  0  0  0  0  0  0  0  0
   -2.4176   -0.3020    0.0000 C   0  0  0  0  0  0  0  0  0  0  0  0
   -3.2426   -0.3020    0.0000 C   0  0  0  0  0  0  0  0  0  0  0  0
   -3.6551    0.4125    0.0000 C   0  0  0  0  0  0  0  0  0  0  0  0
   -3.2426    1.1270    0.0000 C   0  0  0  0  0  0  0  0  0  0  0  0
   -2.4176    1.1270    0.0000 C   0  0  0  0  0  0  0  0  0  0  0  0
   -0.7676    1.1270    0.0000 C   0  0  0  0  0  0  0  0  0  0  0  0
    0.0574    1.1270    0.0000 C   0  0  0  0  0  0  0  0  0  0  0  0
    1.7798    1.0799    0.0000 N   0  0  0  0  0  0  0  0  0  0  0  0
    2.5645    0.8250    0.0000 C   0  0  0  0  0  0  0  0  0  0  0  0
  1  2  2  0  0  0  0
  2  3  1  0  0  0  0
  2  4  1  0  0  0  0
  4  5  4  0  0  0  0
  5  6  4  0  0  0  0
  6  7  4  0  0  0  0
  7  8  4  0  0  0  0
  8  9  4  0  0  0  0
  9 10  4  0  0  0  0
 10 11  1  0  0  0  0
 11 12  4  0  0  0  0
 12 13  4  0  0  0  0
 13 14  4  0  0  0  0
 14 15  1  0  0  0  0
 15 16  4  0  0  0  0
 16 17  4  0  0  0  0
 17 18  4  0  0  0  0
 18 19  4  0  0  0  0
 19 20  4  0  0  0  0
 15 20  4  0  0  0  0
 14 21  4  0  0  0  0
 21 22  4  0  0  0  0
 11 22  4  0  0  0  0
 10 23  4  0  0  0  0
 23 24  4  0  0  0  0
  4 24  4  0  0  0  0
  8 24  4  0  0  0  0
M  END
> <IC50(uM)>
3.8

> <Outcome>
0.0

> <BindingDB ID>
297840

> <BindingDB MonomerID>
155496

> <BindingDB Ligand Name>
US9006454, I138

> <Curation/DataSource>
US Patent

> <Article DOI>
?

> <PMID>
?

> <Patent Number>
US9006454

> <Authors>
Thunuguntla, SS; Subramanya, H; Kunnam, SR; Sanivaru Vijay, SR; Bingi, C; Kusanur, R; Schwarz, M; Arlt, M

> <Link to Ligand in BindingDB>
http://www.bindingdb.org/bind/chemsearch/marvin/MolStructure.jsp?monomerid=155496

> <Link to Ligand-Target Pair in BindingDB>
http://www.bindingdb.org/jsp/dbsearch/PrimarySearch_ki.jsp?energyterm=kJ/mole&tag=r21&monomerid=155496&enzyme=Dihydroorotate+dehydrogenase&column=ki&startPg=0&Increment=50&submit=Search

> <PubChem CID>
58073800

> <PubChem SID>
253658433

$$$$

  Mrv2115 07222212352D          

 25 26  0  0  0  0            999 V2000
    2.0367   -0.4741    0.0000 C   0  0  0  0  0  0  0  0  0  0  0  0
    2.0367   -1.2991    0.0000 C   0  0  0  0  0  0  0  0  0  0  0  0
    2.7041   -1.7840    0.0000 C   0  0  0  0  0  0  0  0  0  0  0  0
    3.4888   -1.5291    0.0000 C   0  0  0  0  0  0  0  0  0  0  0  0
    4.1019   -2.0811    0.0000 C   0  0  0  0  0  0  0  0  0  0  0  0
    4.8865   -1.8262    0.0000 C   0  0  0  0  0  0  0  0  0  0  0  0
    5.4996   -2.3782    0.0000 C   0  0  0  0  0  0  0  0  0  0  0  0
    5.3281   -3.1852    0.0000 C   0  0  0  0  0  0  0  0  0  0  0  0
    5.9411   -3.7372    0.0000 C   0  0  0  0  0  0  0  0  0  0  0  0
    6.5542   -4.2893    0.0000 F   0  0  0  0  0  0  0  0  0  0  0  0
    6.4932   -3.1241    0.0000 F   0  0  0  0  0  0  0  0  0  0  0  0
    5.3891   -4.3503    0.0000 F   0  0  0  0  0  0  0  0  0  0  0  0
    4.5434   -3.4401    0.0000 N   0  0  0  0  0  0  0  0  0  0  0  0
    3.9303   -2.8881    0.0000 C   0  0  0  0  0  0  0  0  0  0  0  0
    2.4492   -2.5687    0.0000 C   0  0  0  0  0  0  0  0  0  0  0  0
    1.6242   -2.5687    0.0000 N   0  0  0  0  0  0  0  0  0  0  0  0
    1.3693   -1.7840    0.0000 C   0  0  0  0  0  0  0  0  0  0  0  0
    0.5846   -1.5291    0.0000 C   0  0  0  0  0  0  0  0  0  0  0  0
    0.4131   -0.7221    0.0000 O   0  0  0  0  0  0  0  0  0  0  0  0
   -0.0284   -2.0811    0.0000 N   0  0  0  0  0  0  0  0  0  0  0  0
   -0.8131   -1.8262    0.0000 C   0  0  0  0  0  0  0  0  0  0  0  0
   -1.4262   -2.3782    0.0000 C   0  0  0  0  0  0  0  0  0  0  0  0
   -2.0393   -2.9302    0.0000 F   0  0  0  0  0  0  0  0  0  0  0  0
   -1.9782   -1.7651    0.0000 F   0  0  0  0  0  0  0  0  0  0  0  0
   -0.8741   -2.9913    0.0000 F   0  0  0  0  0  0  0  0  0  0  0  0
  1  2  1  0  0  0  0
  2  3  4  0  0  0  0
  3  4  1  0  0  0  0
  4  5  1  0  0  0  0
  5  6  4  0  0  0  0
  6  7  4  0  0  0  0
  7  8  4  0  0  0  0
  8  9  1  0  0  0  0
  9 10  1  0  0  0  0
  9 11  1  0  0  0  0
  9 12  1  0  0  0  0
  8 13  4  0  0  0  0
 13 14  4  0  0  0  0
  5 14  4  0  0  0  0
  3 15  4  0  0  0  0
 15 16  4  0  0  0  0
 16 17  4  0  0  0  0
  2 17  4  0  0  0  0
 17 18  1  0  0  0  0
 18 19  2  0  0  0  0
 18 20  1  0  0  0  0
 20 21  1  0  0  0  0
 21 22  1  0  0  0  0
 22 23  1  0  0  0  0
 22 24  1  0  0  0  0
 22 25  1  0  0  0  0
M  STY  1   1 DAT
M  SAL   1  1  16
M  SDT   1 MRV_IMPLICIT_H                                        
M  SDD   1     0.5304   -0.4125    DR    ALL  0       0  
M  SED   1 IMPL_H1
M  END
> <IC50(uM)>
100.0

> <Outcome>
0.0

> <BindingDB ID>
51330098

> <BindingDB MonomerID>
50538346

> <BindingDB Ligand Name>
CHEMBL4643327

> <Curation/DataSource>
ChEMBL

> <Article DOI>
10.1021/acs.jmedchem.0c00311

> <PMID>
32248693

> <Patent Number>
?

> <Authors>
Kokkonda, S; Deng, X; White, KL; El Mazouni, F; White, J; Shackleford, DM; Katneni, K; Chiu, FCK; Barker, H; McLaren, J; Crighton, E; Chen, G; Angulo-Barturen, I; Jimenez-Diaz, MB; Ferrer, S; Huertas-Valentin, L; Martinez-Martinez, MS; Lafuente-Monasterio, MJ; Chittimalla, R; Shahi, SP; Wittlin, S; Waterson, D; Burrows, JN; Matthews, D; Tomchick, D; Rathod, PK; Palmer, MJ; Charman, SA; Phillips, MA

> <Link to Ligand in BindingDB>
http://www.bindingdb.org/bind/chemsearch/marvin/MolStructure.jsp?monomerid=50538346

> <Link to Ligand-Target Pair in BindingDB>
http://www.bindingdb.org/jsp/dbsearch/PrimarySearch_ki.jsp?energyterm=kJ/mole&tag=r21&monomerid=50538346&enzyme=Dihydroorotate+dehydrogenase&column=ki&startPg=0&Increment=50&submit=Search

> <PubChem CID>
156018070

> <PubChem SID>
442139909

$$$$

  Mrv2115 07222212352D          

 27 29  0  0  0  0            999 V2000
   -2.1434   11.7161    0.0000 C   0  0  0  0  0  0  0  0  0  0  0  0
   -2.1434   10.8911    0.0000 O   0  0  0  0  0  0  0  0  0  0  0  0
   -1.4289   10.4786    0.0000 C   0  0  0  0  0  0  0  0  0  0  0  0
   -0.7145   10.8911    0.0000 C   0  0  0  0  0  0  0  0  0  0  0  0
   -0.0000   10.4786    0.0000 C   0  0  0  0  0  0  0  0  0  0  0  0
   -0.0000    9.6536    0.0000 C   0  0  0  0  0  0  0  0  0  0  0  0
   -0.7145    9.2411    0.0000 C   0  0  0  0  0  0  0  0  0  0  0  0
   -0.7145    8.4161    0.0000 C   0  0  0  0  0  0  0  0  0  0  0  0
   -0.0000    8.0036    0.0000 C   0  0  0  0  0  0  0  0  0  0  0  0
   -0.0000    7.1786    0.0000 C   0  0  0  0  0  0  0  0  0  0  0  0
   -0.7145    6.7661    0.0000 C   0  0  0  0  0  0  0  0  0  0  0  0
   -0.7145    5.9411    0.0000 N   0  0  0  0  0  0  0  0  0  0  0  0
   -0.0000    5.5286    0.0000 C   0  0  0  0  0  0  0  0  0  0  0  0
    0.7145    5.9411    0.0000 O   0  0  0  0  0  0  0  0  0  0  0  0
   -0.0000    4.7036    0.0000 C   0  0  0  0  0  0  0  0  0  0  0  0
    0.6674    4.2187    0.0000 C   0  0  0  0  0  0  0  0  0  0  0  0
    1.4521    4.4736    0.0000 C   0  0  0  0  0  0  0  0  0  0  0  0
    1.6236    5.2806    0.0000 O   0  0  0  0  0  0  0  0  0  0  0  0
    2.0652    3.9216    0.0000 O   0  0  0  0  0  0  0  0  0  0  0  0
    0.4125    3.4340    0.0000 C   0  0  0  0  0  0  0  0  0  0  0  0
   -0.4125    3.4340    0.0000 C   0  0  0  0  0  0  0  0  0  0  0  0
   -0.6674    4.2187    0.0000 C   0  0  0  0  0  0  0  0  0  0  0  0
   -1.4289    7.1786    0.0000 C   0  0  0  0  0  0  0  0  0  0  0  0
   -2.1434    6.7661    0.0000 O   0  0  0  0  0  0  0  0  0  0  0  0
   -2.8579    7.1786    0.0000 C   0  0  0  0  0  0  0  0  0  0  0  0
   -1.4289    8.0036    0.0000 C   0  0  0  0  0  0  0  0  0  0  0  0
   -1.4289    9.6536    0.0000 C   0  0  0  0  0  0  0  0  0  0  0  0
  1  2  1  0  0  0  0
  2  3  1  0  0  0  0
  3  4  4  0  0  0  0
  4  5  4  0  0  0  0
  5  6  4  0  0  0  0
  6  7  4  0  0  0  0
  7  8  1  0  0  0  0
  8  9  4  0  0  0  0
  9 10  4  0  0  0  0
 10 11  4  0  0  0  0
 11 12  1  0  0  0  0
 12 13  1  0  0  0  0
 13 14  2  0  0  0  0
 13 15  1  0  0  0  0
 15 16  2  0  0  0  0
 16 17  1  0  0  0  0
 17 18  2  0  0  0  0
 17 19  1  0  0  0  0
 16 20  1  0  0  0  0
 20 21  1  0  0  0  0
 21 22  1  0  0  0  0
 15 22  1  0  0  0  0
 11 23  4  0  0  0  0
 23 24  1  0  0  0  0
 24 25  1  0  0  0  0
 23 26  4  0  0  0  0
  8 26  4  0  0  0  0
  7 27  4  0  0  0  0
  3 27  4  0  0  0  0
M  END
> <IC50(uM)>
0.17

> <Outcome>
1.0

> <BindingDB ID>
50251714

> <BindingDB MonomerID>
50137299

> <BindingDB Ligand Name>
2-(3,3'-Dimethoxy-biphenyl-4-ylcarbamoyl)-cyclopent-1-enecarboxylic acid::CHEMBL154372

> <Curation/DataSource>
ChEMBL

> <Article DOI>
10.1016/j.bmcl.2003.10.021

> <PMID>
14684297

> <Patent Number>
?

> <Authors>
Leban, J; Saeb, W; Garcia, G; Baumgartner, R; Kramer, B

> <Link to Ligand in BindingDB>
http://www.bindingdb.org/bind/chemsearch/marvin/MolStructure.jsp?monomerid=50137299

> <Link to Ligand-Target Pair in BindingDB>
http://www.bindingdb.org/jsp/dbsearch/PrimarySearch_ki.jsp?energyterm=kJ/mole&tag=r21&monomerid=50137299&enzyme=Dihydroorotate+dehydrogenase&column=ki&startPg=0&Increment=50&submit=Search

> <PubChem CID>
21084721

> <PubChem SID>
104027465

$$$$

  Mrv2115 07222212352D          

 27 30  0  0  0  0            999 V2000
    2.1434   -2.8875    0.0000 O   0  0  0  0  0  0  0  0  0  0  0  0
    1.4289   -2.4750    0.0000 C   0  0  0  0  0  0  0  0  0  0  0  0
    0.7145   -2.8875    0.0000 O   0  0  0  0  0  0  0  0  0  0  0  0
    1.4289   -1.6500    0.0000 C   0  0  0  0  0  0  0  0  0  0  0  0
    0.7145   -1.2375    0.0000 C   0  0  0  0  0  0  0  0  0  0  0  0
    0.7145   -0.4125    0.0000 C   0  0  0  0  0  0  0  0  0  0  0  0
    0.0000    0.0000    0.0000 C   0  0  0  0  0  0  0  0  0  0  0  0
   -0.7145   -0.4125    0.0000 C   0  0  0  0  0  0  0  0  0  0  0  0
   -1.4289    0.0000    0.0000 C   0  0  0  0  0  0  0  0  0  0  0  0
   -1.4289    0.8250    0.0000 C   0  0  0  0  0  0  0  0  0  0  0  0
   -2.1434    1.2375    0.0000 O   0  0  0  0  0  0  0  0  0  0  0  0
   -2.1434    2.0625    0.0000 C   0  0  0  0  0  0  0  0  0  0  0  0
   -2.8579    2.4750    0.0000 C   0  0  0  0  0  0  0  0  0  0  0  0
   -2.8579    3.3000    0.0000 C   0  0  0  0  0  0  0  0  0  0  0  0
   -2.1434    3.7125    0.0000 C   0  0  0  0  0  0  0  0  0  0  0  0
   -1.4289    3.3000    0.0000 C   0  0  0  0  0  0  0  0  0  0  0  0
   -1.4289    2.4750    0.0000 C   0  0  0  0  0  0  0  0  0  0  0  0
   -0.7145    1.2375    0.0000 C   0  0  0  0  0  0  0  0  0  0  0  0
    0.0000    0.8250    0.0000 C   0  0  0  0  0  0  0  0  0  0  0  0
    1.4289    0.0000    0.0000 N   0  0  0  0  0  0  0  0  0  0  0  0
    2.1434   -0.4125    0.0000 C   0  0  0  0  0  0  0  0  0  0  0  0
    2.8579    0.0000    0.0000 C   0  0  0  0  0  0  0  0  0  0  0  0
    3.5724   -0.4125    0.0000 C   0  0  0  0  0  0  0  0  0  0  0  0
    3.5724   -1.2375    0.0000 C   0  0  0  0  0  0  0  0  0  0  0  0
    4.2868   -1.6500    0.0000 F   0  0  0  0  0  0  0  0  0  0  0  0
    2.8579   -1.6500    0.0000 C   0  0  0  0  0  0  0  0  0  0  0  0
    2.1434   -1.2375    0.0000 C   0  0  0  0  0  0  0  0  0  0  0  0
  1  2  2  0  0  0  0
  2  3  1  0  0  0  0
  2  4  1  0  0  0  0
  4  5  4  0  0  0  0
  5  6  4  0  0  0  0
  6  7  1  0  0  0  0
  7  8  4  0  0  0  0
  8  9  4  0  0  0  0
  9 10  4  0  0  0  0
 10 11  1  0  0  0  0
 11 12  1  0  0  0  0
 12 13  4  0  0  0  0
 13 14  4  0  0  0  0
 14 15  4  0  0  0  0
 15 16  4  0  0  0  0
 16 17  4  0  0  0  0
 12 17  4  0  0  0  0
 10 18  4  0  0  0  0
 18 19  4  0  0  0  0
  7 19  4  0  0  0  0
  6 20  4  0  0  0  0
 20 21  4  0  0  0  0
 21 22  4  0  0  0  0
 22 23  4  0  0  0  0
 23 24  4  0  0  0  0
 24 25  1  0  0  0  0
 24 26  4  0  0  0  0
 26 27  4  0  0  0  0
  4 27  4  0  0  0  0
 21 27  4  0  0  0  0
M  END
> <IC50(uM)>
0.036

> <Outcome>
1.0

> <BindingDB ID>
51064007

> <BindingDB MonomerID>
50434231

> <BindingDB Ligand Name>
CHEMBL2385515

> <Curation/DataSource>
ChEMBL

> <Article DOI>
10.1021/ml300464h

> <PMID>
23930152

> <Patent Number>
?

> <Authors>
Das, P; Deng, X; Zhang, L; Roth, MG; Fontoura, BM; Phillips, MA; De Brabander, JK

> <Link to Ligand in BindingDB>
http://www.bindingdb.org/bind/chemsearch/marvin/MolStructure.jsp?monomerid=50434231

> <Link to Ligand-Target Pair in BindingDB>
http://www.bindingdb.org/jsp/dbsearch/PrimarySearch_ki.jsp?energyterm=kJ/mole&tag=r21&monomerid=50434231&enzyme=Dihydroorotate+dehydrogenase&column=ki&startPg=0&Increment=50&submit=Search

> <PubChem CID>
53357599

> <PubChem SID>
175446548

$$$$

  Mrv2115 07222212352D          

 34 36  0  0  0  0            999 V2000
    2.1434   -3.7125    0.0000 C   0  0  0  0  0  0  0  0  0  0  0  0
    2.8579   -4.1250    0.0000 C   0  0  0  0  0  0  0  0  0  0  0  0
    3.5724   -3.7125    0.0000 C   0  0  0  0  0  0  0  0  0  0  0  0
    4.2868   -4.1250    0.0000 C   0  0  0  0  0  0  0  0  0  0  0  0
    4.2868   -4.9500    0.0000 C   0  0  0  0  0  0  0  0  0  0  0  0
    5.0013   -3.7125    0.0000 O   0  0  0  0  0  0  0  0  0  0  0  0
    5.0013   -2.8875    0.0000 C   0  0  0  0  0  0  0  0  0  0  0  0
    4.2868   -2.4750    0.0000 C   0  0  0  0  0  0  0  0  0  0  0  0
    4.2868   -1.6500    0.0000 C   0  0  0  0  0  0  0  0  0  0  0  0
    3.5724   -1.2375    0.0000 N   0  0  0  0  0  0  0  0  0  0  0  0
    2.8187   -1.5731    0.0000 N   0  0  0  0  0  0  0  0  0  0  0  0
    2.2666   -0.9600    0.0000 C   0  0  0  0  0  0  0  0  0  0  0  0
    1.4462   -1.0462    0.0000 C   0  0  0  0  0  0  0  0  0  0  0  0
    1.1106   -1.7999    0.0000 C   0  0  0  0  0  0  0  0  0  0  0  0
    0.9612   -0.3788    0.0000 O   0  0  0  0  0  0  0  0  0  0  0  0
    2.6791   -0.2455    0.0000 N   0  0  0  0  0  0  0  0  0  0  0  0
    2.3436    0.5082    0.0000 C   0  0  0  0  0  0  0  0  0  0  0  0
    3.4861   -0.4170    0.0000 C   0  0  0  0  0  0  0  0  0  0  0  0
    4.0992    0.1350    0.0000 O   0  0  0  0  0  0  0  0  0  0  0  0
    5.0013   -1.2375    0.0000 C   0  0  0  0  0  0  0  0  0  0  0  0
    5.0013   -0.4125    0.0000 F   0  0  0  0  0  0  0  0  0  0  0  0
    5.7158   -1.6500    0.0000 C   0  0  0  0  0  0  0  0  0  0  0  0
    5.7158   -2.4750    0.0000 C   0  0  0  0  0  0  0  0  0  0  0  0
    6.4302   -2.8875    0.0000 C   0  0  0  0  0  0  0  0  0  0  0  0
    6.4302   -3.7125    0.0000 O   0  0  0  0  0  0  0  0  0  0  0  0
    7.1447   -2.4750    0.0000 N   0  0  0  0  0  0  0  0  0  0  0  0
    7.8592   -2.8875    0.0000 C   0  0  0  0  0  0  0  0  0  0  0  0
    8.5737   -2.4750    0.0000 C   0  0  0  0  0  0  0  0  0  0  0  0
    8.5737   -1.6500    0.0000 C   0  0  0  0  0  0  0  0  0  0  0  0
    9.2881   -2.8875    0.0000 C   0  0  0  0  0  0  0  0  0  0  0  0
    9.2881   -3.7125    0.0000 C   0  0  0  0  0  0  0  0  0  0  0  0
    8.5737   -4.1250    0.0000 C   0  0  0  0  0  0  0  0  0  0  0  0
    7.8592   -3.7125    0.0000 C   0  0  0  0  0  0  0  0  0  0  0  0
    7.1447   -4.1250    0.0000 F   0  0  0  0  0  0  0  0  0  0  0  0
  1  2  1  0  0  0  0
  2  3  1  0  0  0  0
  3  4  1  0  0  0  0
  4  5  1  0  0  0  0
  4  6  1  0  0  0  0
  6  7  1  0  0  0  0
  7  8  4  0  0  0  0
  8  9  4  0  0  0  0
  9 10  1  0  0  0  0
 10 11  4  0  0  0  0
 11 12  4  0  0  0  0
 12 13  1  0  0  0  0
 13 14  1  0  0  0  0
 13 15  1  0  0  0  0
 12 16  4  0  0  0  0
 16 17  1  0  0  0  0
 16 18  4  0  0  0  0
 10 18  4  0  0  0  0
 18 19  2  0  0  0  0
  9 20  4  0  0  0  0
 20 21  1  0  0  0  0
 20 22  4  0  0  0  0
 22 23  4  0  0  0  0
  7 23  4  0  0  0  0
 23 24  1  0  0  0  0
 24 25  2  0  0  0  0
 24 26  1  0  0  0  0
 26 27  1  0  0  0  0
 27 28  4  0  0  0  0
 28 29  1  0  0  0  0
 28 30  4  0  0  0  0
 30 31  4  0  0  0  0
 31 32  4  0  0  0  0
 32 33  4  0  0  0  0
 27 33  4  0  0  0  0
 33 34  1  0  0  0  0
M  END
> <IC50(uM)>
0.007

> <Outcome>
1.0

> <BindingDB ID>
1098754; 972600

> <BindingDB MonomerID>
470479

> <BindingDB Ligand Name>
5-fluoro-N-(2-fluoro-6-methylphenyl)-4-{3-[(1S)-1-hydroxyethyl]-4-methyl-5-oxo-4,5-dihydro-1H-1,2,4-triazol-1-yl}-2-[(2S)-pentan-2-yloxy]benzamide::US10815215, Example 142::US11130745, Example 142; 5-fluoro-N-(2-fluoro-6-methylphenyl)-4-{3-[(1S)-1-hydroxyethyl]-4-methyl-5-oxo-4,5-dihydro-1H-1,2,4-triazol-1-yl}-2-[(2S)-pentan-2-yloxy]benzamide::US10815215, Example 142

> <Curation/DataSource>
US Patent

> <Article DOI>
?

> <PMID>
?

> <Patent Number>
US11130745; US10815215

> <Authors>
Gradl, SN; Nguyen, D; Eis, K; Gunther, J; Stellfeld, T; Janzer, A; Christian, S; Muller, T; Sheikh, SE; Sykes, DB; Ferrara, SJ; Krober, M; Merz, C; Niehues, M; Schafer, M; Zimmermann, K; Nising, CF; Gradl, SN; Nguyen, D; Eis, K; Gunther, J; Stellfeld, T; Janzer, A; Christian, S; Muller, T; Sheikh, SE; Zhou, HJ; Zhao, C; Sykes, DB; Ferrara, SJ; Liu, K; Krober, M; Merz, C; Niehues, M; Schafer, M; Zimmermann, K; Nising, CF

> <Link to Ligand in BindingDB>
http://www.bindingdb.org/bind/chemsearch/marvin/MolStructure.jsp?monomerid=470479

> <Link to Ligand-Target Pair in BindingDB>
http://www.bindingdb.org/jsp/dbsearch/PrimarySearch_ki.jsp?energyterm=kJ/mole&tag=r21&monomerid=470479&enzyme=Dihydroorotate+dehydrogenase&column=ki&startPg=0&Increment=50&submit=Search

> <PubChem CID>
134470303

> <PubChem SID>
441609656

$$$$

  Mrv2115 07222212352D          

 32 36  0  0  0  0            999 V2000
    6.2102    1.1104    0.0000 C   0  0  0  0  0  0  0  0  0  0  0  0
    5.4957    0.6979    0.0000 O   0  0  0  0  0  0  0  0  0  0  0  0
    4.7812    1.1104    0.0000 C   0  0  0  0  0  0  0  0  0  0  0  0
    4.7812    1.9354    0.0000 C   0  0  0  0  0  0  0  0  0  0  0  0
    4.0668    2.3479    0.0000 C   0  0  0  0  0  0  0  0  0  0  0  0
    3.3523    1.9354    0.0000 C   0  0  0  0  0  0  0  0  0  0  0  0
    3.3523    1.1104    0.0000 C   0  0  0  0  0  0  0  0  0  0  0  0
    4.0668    0.6979    0.0000 C   0  0  0  0  0  0  0  0  0  0  0  0
    2.6378    0.6979    0.0000 C   0  0  0  0  0  0  0  0  0  0  0  0
    2.6378   -0.1271    0.0000 O   0  0  0  0  0  0  0  0  0  0  0  0
    1.9233    1.1104    0.0000 C   0  0  0  0  0  0  0  0  0  0  0  0
    1.9233    1.9354    0.0000 C   0  0  0  0  0  0  0  0  0  0  0  0
    1.1387    2.1904    0.0000 N   0  0  0  0  0  0  0  0  0  0  0  0
    0.6538    1.5229    0.0000 N   0  0  0  0  0  0  0  0  0  0  0  0
    1.1387    0.8555    0.0000 N   0  0  0  0  0  0  0  0  0  0  0  0
    0.8838    0.0709    0.0000 C   0  0  0  0  0  0  0  0  0  0  0  0
    1.4358   -0.5422    0.0000 C   0  0  0  0  0  0  0  0  0  0  0  0
    1.1809   -1.3268    0.0000 C   0  0  0  0  0  0  0  0  0  0  0  0
    1.7329   -1.9399    0.0000 F   0  0  0  0  0  0  0  0  0  0  0  0
    0.3739   -1.4984    0.0000 C   0  0  0  0  0  0  0  0  0  0  0  0
    0.1190   -2.2830    0.0000 C   0  0  0  0  0  0  0  0  0  0  0  0
    0.6710   -2.8961    0.0000 C   0  0  0  0  0  0  0  0  0  0  0  0
    0.4161   -3.6807    0.0000 C   0  0  0  0  0  0  0  0  0  0  0  0
   -0.3909   -3.8522    0.0000 C   0  0  0  0  0  0  0  0  0  0  0  0
   -0.9429   -3.2391    0.0000 C   0  0  0  0  0  0  0  0  0  0  0  0
   -0.6880   -2.4545    0.0000 C   0  0  0  0  0  0  0  0  0  0  0  0
   -1.2400   -1.8414    0.0000 F   0  0  0  0  0  0  0  0  0  0  0  0
   -0.1781   -0.8853    0.0000 C   0  0  0  0  0  0  0  0  0  0  0  0
   -0.9851   -1.0568    0.0000 F   0  0  0  0  0  0  0  0  0  0  0  0
    0.0768   -0.1006    0.0000 C   0  0  0  0  0  0  0  0  0  0  0  0
    2.6378    2.3479    0.0000 C   0  0  0  0  0  0  0  0  0  0  0  0
    2.6378    3.1729    0.0000 O   0  0  0  0  0  0  0  0  0  0  0  0
  1  2  1  0  0  0  0
  2  3  1  0  0  0  0
  3  4  4  0  0  0  0
  4  5  4  0  0  0  0
  5  6  4  0  0  0  0
  6  7  4  0  0  0  0
  7  8  4  0  0  0  0
  3  8  4  0  0  0  0
  7  9  1  0  0  0  0
  9 10  2  0  0  0  0
  9 11  1  0  0  0  0
 11 12  4  0  0  0  0
 12 13  4  0  0  0  0
 13 14  4  0  0  0  0
 14 15  4  0  0  0  0
 11 15  4  0  0  0  0
 15 16  1  0  0  0  0
 16 17  4  0  0  0  0
 17 18  4  0  0  0  0
 18 19  1  0  0  0  0
 18 20  4  0  0  0  0
 20 21  1  0  0  0  0
 21 22  4  0  0  0  0
 22 23  4  0  0  0  0
 23 24  4  0  0  0  0
 24 25  4  0  0  0  0
 25 26  4  0  0  0  0
 21 26  4  0  0  0  0
 26 27  1  0  0  0  0
 20 28  4  0  0  0  0
 28 29  1  0  0  0  0
 28 30  4  0  0  0  0
 16 30  4  0  0  0  0
 12 31  1  0  0  0  0
  6 31  1  0  0  0  0
 31 32  2  0  0  0  0
M  END
> <IC50(uM)>
1.0

> <Outcome>
1.0

> <BindingDB ID>
51338208

> <BindingDB MonomerID>
50541682

> <BindingDB Ligand Name>
CHEMBL4632629

> <Curation/DataSource>
ChEMBL

> <Article DOI>
10.1021/acs.jmedchem.0c00512

> <PMID>
32496056

> <Patent Number>
?

> <Authors>
Zuo, Z; Liu, X; Qian, X; Zeng, T; Sang, N; Liu, H; Zhou, Y; Tao, L; Zhou, X; Su, N; Yu, Y; Chen, Q; Luo, Y; Zhao, Y

> <Link to Ligand in BindingDB>
http://www.bindingdb.org/bind/chemsearch/marvin/MolStructure.jsp?monomerid=50541682

> <Link to Ligand-Target Pair in BindingDB>
http://www.bindingdb.org/jsp/dbsearch/PrimarySearch_ki.jsp?energyterm=kJ/mole&tag=r21&monomerid=50541682&enzyme=Dihydroorotate+dehydrogenase&column=ki&startPg=0&Increment=50&submit=Search

> <PubChem CID>
156009945

> <PubChem SID>
442143245

$$$$

  Mrv2115 07222212352D          

 22 24  0  0  0  0            999 V2000
   -4.8918    1.9041    0.0000 C   0  0  0  0  0  0  0  0  0  0  0  0
   -4.2787    1.3521    0.0000 C   0  0  0  0  0  0  0  0  0  0  0  0
   -3.4941    1.6070    0.0000 O   0  0  0  0  0  0  0  0  0  0  0  0
   -2.8810    1.0550    0.0000 C   0  0  0  0  0  0  0  0  0  0  0  0
   -3.0525    0.2480    0.0000 O   0  0  0  0  0  0  0  0  0  0  0  0
   -2.0964    1.3099    0.0000 C   0  0  0  0  0  0  0  0  0  0  0  0
   -1.8414    2.0945    0.0000 C   0  0  0  0  0  0  0  0  0  0  0  0
   -2.3264    2.7620    0.0000 O   0  0  0  0  0  0  0  0  0  0  0  0
   -1.0164    2.0945    0.0000 C   0  0  0  0  0  0  0  0  0  0  0  0
   -0.7615    1.3099    0.0000 O   0  0  0  0  0  0  0  0  0  0  0  0
   -1.4289    0.8250    0.0000 C   0  0  0  0  0  0  0  0  0  0  0  0
   -1.4289    0.0000    0.0000 N   0  0  0  0  0  0  0  0  0  0  0  0
   -0.7145   -0.4125    0.0000 C   0  0  0  0  0  0  0  0  0  0  0  0
   -0.7145   -1.2375    0.0000 C   0  0  0  0  0  0  0  0  0  0  0  0
    0.0000   -1.6500    0.0000 C   0  0  0  0  0  0  0  0  0  0  0  0
    0.7145   -1.2375    0.0000 C   0  0  0  0  0  0  0  0  0  0  0  0
    0.7145   -0.4125    0.0000 C   0  0  0  0  0  0  0  0  0  0  0  0
    0.0000   -0.0000    0.0000 C   0  0  0  0  0  0  0  0  0  0  0  0
    1.4289   -0.0000    0.0000 C   0  0  0  0  0  0  0  0  0  0  0  0
    2.1434   -0.4125    0.0000 C   0  0  0  0  0  0  0  0  0  0  0  0
    2.1434   -1.2375    0.0000 C   0  0  0  0  0  0  0  0  0  0  0  0
    1.4289   -1.6500    0.0000 C   0  0  0  0  0  0  0  0  0  0  0  0
  1  2  1  0  0  0  0
  2  3  1  0  0  0  0
  3  4  1  0  0  0  0
  4  5  2  0  0  0  0
  4  6  1  0  0  0  0
  6  7  4  0  0  0  0
  7  8  1  0  0  0  0
  7  9  4  0  0  0  0
  9 10  4  0  0  0  0
 10 11  4  0  0  0  0
  6 11  4  0  0  0  0
 11 12  1  0  0  0  0
 12 13  1  0  0  0  0
 13 14  4  0  0  0  0
 14 15  4  0  0  0  0
 15 16  4  0  0  0  0
 16 17  4  0  0  0  0
 17 18  4  0  0  0  0
 13 18  4  0  0  0  0
 17 19  1  0  0  0  0
 19 20  1  0  0  0  0
 20 21  1  0  0  0  0
 21 22  1  0  0  0  0
 16 22  1  0  0  0  0
M  END
> <IC50(uM)>
50.0

> <Outcome>
0.0

> <BindingDB ID>
51079142

> <BindingDB MonomerID>
50441250

> <BindingDB Ligand Name>
CHEMBL2431499

> <Curation/DataSource>
ChEMBL

> <Article DOI>
10.1021/jm400938g

> <PMID>
24073986

> <Patent Number>
?

> <Authors>
Xu, M; Zhu, J; Diao, Y; Zhou, H; Ren, X; Sun, D; Huang, J; Han, D; Zhao, Z; Zhu, L; Xu, Y; Li, H

> <Link to Ligand in BindingDB>
http://www.bindingdb.org/bind/chemsearch/marvin/MolStructure.jsp?monomerid=50441250

> <Link to Ligand-Target Pair in BindingDB>
http://www.bindingdb.org/jsp/dbsearch/PrimarySearch_ki.jsp?energyterm=kJ/mole&tag=r21&monomerid=50441250&enzyme=Dihydroorotate+dehydrogenase&column=ki&startPg=0&Increment=50&submit=Search

> <PubChem CID>
91898811

> <PubChem SID>
175453567

$$$$

  Mrv2115 07222212352D          

 17 18  0  0  0  0            999 V2000
    1.3222   -0.0616    0.0000 C   0  0  0  0  0  0  0  0  0  0  0  0
    2.0367   -0.4741    0.0000 C   0  0  0  0  0  0  0  0  0  0  0  0
    2.7512   -0.0616    0.0000 O   0  0  0  0  0  0  0  0  0  0  0  0
    2.0367   -1.2991    0.0000 C   0  0  0  0  0  0  0  0  0  0  0  0
    2.7041   -1.7840    0.0000 S   0  0  0  0  0  0  0  0  0  0  0  0
    2.4492   -2.5687    0.0000 C   0  0  0  0  0  0  0  0  0  0  0  0
    2.9341   -3.2361    0.0000 N   0  0  0  0  0  0  0  0  0  0  0  0
    2.5986   -3.9898    0.0000 C   0  0  0  0  0  0  0  0  0  0  0  0
    3.0835   -4.6572    0.0000 C   0  0  0  0  0  0  0  0  0  0  0  0
    2.7479   -5.4109    0.0000 C   0  0  0  0  0  0  0  0  0  0  0  0
    1.9275   -5.4971    0.0000 C   0  0  0  0  0  0  0  0  0  0  0  0
    1.5919   -6.2508    0.0000 Br  0  0  0  0  0  0  0  0  0  0  0  0
    1.4425   -4.8297    0.0000 C   0  0  0  0  0  0  0  0  0  0  0  0
    1.7781   -4.0760    0.0000 C   0  0  0  0  0  0  0  0  0  0  0  0
    1.6242   -2.5687    0.0000 N   0  0  0  0  0  0  0  0  0  0  0  0
    1.3693   -1.7840    0.0000 C   0  0  0  0  0  0  0  0  0  0  0  0
    0.5846   -1.5291    0.0000 C   0  0  0  0  0  0  0  0  0  0  0  0
  1  2  1  0  0  0  0
  2  3  2  0  0  0  0
  2  4  1  0  0  0  0
  4  5  4  0  0  0  0
  5  6  4  0  0  0  0
  6  7  1  0  0  0  0
  7  8  1  0  0  0  0
  8  9  4  0  0  0  0
  9 10  4  0  0  0  0
 10 11  4  0  0  0  0
 11 12  1  0  0  0  0
 11 13  4  0  0  0  0
 13 14  4  0  0  0  0
  8 14  4  0  0  0  0
  6 15  4  0  0  0  0
 15 16  4  0  0  0  0
  4 16  4  0  0  0  0
 16 17  1  0  0  0  0
M  END
> <IC50(uM)>
10.0

> <Outcome>
0.0

> <BindingDB ID>
50312482

> <BindingDB MonomerID>
50071794

> <BindingDB Ligand Name>
CHEMBL3410570

> <Curation/DataSource>
ChEMBL

> <Article DOI>
10.1021/jm501127s

> <PMID>
25580811

> <Patent Number>
?

> <Authors>
Zhu, J; Han, L; Diao, Y; Ren, X; Xu, M; Xu, L; Li, S; Li, Q; Dong, D; Huang, J; Liu, X; Zhao, Z; Wang, R; Zhu, L; Xu, Y; Qian, X; Li, H

> <Link to Ligand in BindingDB>
http://www.bindingdb.org/bind/chemsearch/marvin/MolStructure.jsp?monomerid=50071794

> <Link to Ligand-Target Pair in BindingDB>
http://www.bindingdb.org/jsp/dbsearch/PrimarySearch_ki.jsp?energyterm=kJ/mole&tag=r21&monomerid=50071794&enzyme=Dihydroorotate+dehydrogenase&column=ki&startPg=0&Increment=50&submit=Search

> <PubChem CID>
2858282

> <PubChem SID>
103965504

$$$$

  Mrv2115 07222212352D          

 21 22  0  0  0  0            999 V2000
    0.7145   -1.2375    0.0000 C   0  0  0  0  0  0  0  0  0  0  0  0
    1.4289   -1.6500    0.0000 C   0  0  0  0  0  0  0  0  0  0  0  0
    1.4289   -2.4750    0.0000 C   0  0  0  0  0  0  0  0  0  0  0  0
    2.1434   -2.8875    0.0000 C   0  0  0  0  0  0  0  0  0  0  0  0
    2.1434   -3.7125    0.0000 C   0  0  0  0  0  0  0  0  0  0  0  0
    1.4289   -4.1250    0.0000 C   0  0  0  0  0  0  0  0  0  0  0  0
    1.4289   -4.9500    0.0000 C   0  0  0  0  0  0  0  0  0  0  0  0
    2.1434   -5.3625    0.0000 C   0  0  0  0  0  0  0  0  0  0  0  0
    2.1434   -6.1875    0.0000 C   0  0  0  0  0  0  0  0  0  0  0  0
    2.8579   -6.6000    0.0000 C   0  0  0  0  0  0  0  0  0  0  0  0
    3.5724   -6.1875    0.0000 C   0  0  0  0  0  0  0  0  0  0  0  0
    4.2868   -6.6000    0.0000 O   0  0  0  0  0  0  0  0  0  0  0  0
    3.5724   -5.3625    0.0000 O   0  0  0  0  0  0  0  0  0  0  0  0
    2.8579   -7.4250    0.0000 N   0  0  0  0  0  0  0  0  0  0  0  0
    2.1434   -7.8375    0.0000 C   0  0  0  0  0  0  0  0  0  0  0  0
    2.1434   -8.6625    0.0000 O   0  0  0  0  0  0  0  0  0  0  0  0
    1.4289   -7.4250    0.0000 N   0  0  0  0  0  0  0  0  0  0  0  0
    1.4289   -6.6000    0.0000 C   0  0  0  0  0  0  0  0  0  0  0  0
    0.7145   -6.1875    0.0000 O   0  0  0  0  0  0  0  0  0  0  0  0
    0.7145   -3.7125    0.0000 C   0  0  0  0  0  0  0  0  0  0  0  0
    0.7145   -2.8875    0.0000 C   0  0  0  0  0  0  0  0  0  0  0  0
  1  2  1  0  0  0  0
  2  3  1  0  0  0  0
  3  4  4  0  0  0  0
  4  5  4  0  0  0  0
  5  6  4  0  0  0  0
  6  7  1  0  0  0  0
  7  8  1  0  0  0  0
  8  9  1  0  0  0  0
  9 10  4  0  0  0  0
 10 11  1  0  0  0  0
 11 12  2  0  0  0  0
 11 13  1  0  0  0  0
 10 14  4  0  0  0  0
 14 15  4  0  0  0  0
 15 16  2  0  0  0  0
 15 17  4  0  0  0  0
 17 18  4  0  0  0  0
  9 18  4  0  0  0  0
 18 19  2  0  0  0  0
  6 20  4  0  0  0  0
 20 21  4  0  0  0  0
  3 21  4  0  0  0  0
M  STY  2   1 DAT   2 DAT
M  SAL   1  1  14
M  SDT   1 MRV_IMPLICIT_H                                        
M  SDD   1     0.5304   -0.4125    DR    ALL  0       0  
M  SED   1 IMPL_H1
M  SAL   2  1  17
M  SDT   2 MRV_IMPLICIT_H                                        
M  SDD   2     0.5304   -0.4125    DR    ALL  0       0  
M  SED   2 IMPL_H1
M  END
> <IC50(uM)>
0.496

> <Outcome>
1.0

> <BindingDB ID>
50555332

> <BindingDB MonomerID>
50211730

> <BindingDB Ligand Name>
CHEMBL3920594

> <Curation/DataSource>
ChEMBL

> <Article DOI>
10.1016/j.bmc.2017.01.009

> <PMID>
28118956

> <Patent Number>
?

> <Authors>
Inaoka, DK; Iida, M; Hashimoto, S; Tabuchi, T; Kuranaga, T; Balogun, EO; Honma, T; Tanaka, A; Harada, S; Nara, T; Kita, K; Inoue, M

> <Link to Ligand in BindingDB>
http://www.bindingdb.org/bind/chemsearch/marvin/MolStructure.jsp?monomerid=50211730

> <Link to Ligand-Target Pair in BindingDB>
http://www.bindingdb.org/jsp/dbsearch/PrimarySearch_ki.jsp?energyterm=kJ/mole&tag=r21&monomerid=50211730&enzyme=Dihydroorotate+dehydrogenase&column=ki&startPg=0&Increment=50&submit=Search

> <PubChem CID>
134139256

> <PubChem SID>
375983067

$$$$

  Mrv2115 07222212352D          

 21 24  0  0  0  0            999 V2000
    4.0668    2.3479    0.0000 C   0  0  0  0  0  0  0  0  0  0  0  0
    3.3523    1.9354    0.0000 C   0  0  0  0  0  0  0  0  0  0  0  0
    3.3523    1.1104    0.0000 C   0  0  0  0  0  0  0  0  0  0  0  0
    2.6378    0.6979    0.0000 C   0  0  0  0  0  0  0  0  0  0  0  0
    2.6378   -0.1271    0.0000 N   0  0  0  0  0  0  0  0  0  0  0  0
    3.3523   -0.5396    0.0000 C   0  0  0  0  0  0  0  0  0  0  0  0
    4.0668   -0.1271    0.0000 C   0  0  0  0  0  0  0  0  0  0  0  0
    4.7812   -0.5396    0.0000 C   0  0  0  0  0  0  0  0  0  0  0  0
    4.7812   -1.3646    0.0000 C   0  0  0  0  0  0  0  0  0  0  0  0
    5.4957   -1.7771    0.0000 Cl  0  0  0  0  0  0  0  0  0  0  0  0
    4.0668   -1.7771    0.0000 C   0  0  0  0  0  0  0  0  0  0  0  0
    3.3523   -1.3646    0.0000 C   0  0  0  0  0  0  0  0  0  0  0  0
    1.9233    1.1104    0.0000 N   0  0  0  0  0  0  0  0  0  0  0  0
    1.1387    0.8555    0.0000 N   0  0  0  0  0  0  0  0  0  0  0  0
    0.6538    1.5229    0.0000 C   0  0  0  0  0  0  0  0  0  0  0  0
   -0.1712    1.5229    0.0000 C   0  0  0  0  0  0  0  0  0  0  0  0
   -0.8857    1.1104    0.0000 C   0  0  0  0  0  0  0  0  0  0  0  0
   -0.8857    1.9354    0.0000 C   0  0  0  0  0  0  0  0  0  0  0  0
    1.1387    2.1904    0.0000 N   0  0  0  0  0  0  0  0  0  0  0  0
    1.9233    1.9354    0.0000 C   0  0  0  0  0  0  0  0  0  0  0  0
    2.6378    2.3479    0.0000 N   0  0  0  0  0  0  0  0  0  0  0  0
  1  2  1  0  0  0  0
  2  3  4  0  0  0  0
  3  4  4  0  0  0  0
  4  5  1  0  0  0  0
  5  6  1  0  0  0  0
  6  7  4  0  0  0  0
  7  8  4  0  0  0  0
  8  9  4  0  0  0  0
  9 10  1  0  0  0  0
  9 11  4  0  0  0  0
 11 12  4  0  0  0  0
  6 12  4  0  0  0  0
  4 13  4  0  0  0  0
 13 14  4  0  0  0  0
 14 15  4  0  0  0  0
 15 16  1  0  0  0  0
 16 17  1  0  0  0  0
 17 18  1  0  0  0  0
 16 18  1  0  0  0  0
 15 19  4  0  0  0  0
 19 20  4  0  0  0  0
 13 20  4  0  0  0  0
 20 21  4  0  0  0  0
  2 21  4  0  0  0  0
M  END
> <IC50(uM)>
100.0

> <Outcome>
0.0

> <BindingDB ID>
50720166

> <BindingDB MonomerID>
50365236

> <BindingDB Ligand Name>
CHEMBL1956276

> <Curation/DataSource>
ChEMBL

> <Article DOI>
10.1021/jm200592f

> <PMID>
21696174

> <Patent Number>
?

> <Authors>
Coteron, JM; Marco, M; Esquivias, J; Deng, X; White, KL; White, J; Koltun, M; El Mazouni, F; Kokkonda, S; Katneni, K; Bhamidipati, R; Shackleford, DM; Angulo-Barturen, I; Ferrer, SB; Jimenez-Diaz, MB; Gamo, FJ; Goldsmith, EJ; Charman, WN; Bathurst, I; Floyd, D; Matthews, D; Burrows, JN; Rathod, PK; Charman, SA; Phillips, MA

> <Link to Ligand in BindingDB>
http://www.bindingdb.org/bind/chemsearch/marvin/MolStructure.jsp?monomerid=50365236

> <Link to Ligand-Target Pair in BindingDB>
http://www.bindingdb.org/jsp/dbsearch/PrimarySearch_ki.jsp?energyterm=kJ/mole&tag=r21&monomerid=50365236&enzyme=Dihydroorotate+dehydrogenase&column=ki&startPg=0&Increment=50&submit=Search

> <PubChem CID>
53392619

> <PubChem SID>
136969298

$$$$

  Mrv2115 07222212352D          

 39 43  0  0  0  0            999 V2000
    0.1526   -8.8782    0.0000 C   0  0  0  0  0  0  0  0  0  0  0  0
   -0.1830   -8.1245    0.0000 C   0  0  0  0  0  0  0  0  0  0  0  0
    0.3020   -7.4570    0.0000 C   0  0  0  0  0  0  0  0  0  0  0  0
    0.0470   -6.6724    0.0000 N   0  0  0  0  0  0  0  0  0  0  0  0
    0.7145   -6.1875    0.0000 N   0  0  0  0  0  0  0  0  0  0  0  0
    0.7145   -5.3625    0.0000 C   0  0  0  0  0  0  0  0  0  0  0  0
    0.0000   -4.9500    0.0000 C   0  0  0  0  0  0  0  0  0  0  0  0
    0.0000   -4.1250    0.0000 C   0  0  0  0  0  0  0  0  0  0  0  0
   -0.7145   -3.7125    0.0000 O   0  0  0  0  0  0  0  0  0  0  0  0
   -1.4289   -4.1250    0.0000 C   0  0  0  0  0  0  0  0  0  0  0  0
   -1.4289   -4.9500    0.0000 C   0  0  0  0  0  0  0  0  0  0  0  0
   -2.1434   -3.7125    0.0000 C   0  0  0  0  0  0  0  0  0  0  0  0
   -2.8579   -4.1250    0.0000 C   0  0  0  0  0  0  0  0  0  0  0  0
   -3.5724   -3.7125    0.0000 C   0  0  0  0  0  0  0  0  0  0  0  0
   -3.5724   -2.8875    0.0000 C   0  0  0  0  0  0  0  0  0  0  0  0
   -2.8579   -2.4750    0.0000 C   0  0  0  0  0  0  0  0  0  0  0  0
   -2.1434   -2.8875    0.0000 C   0  0  0  0  0  0  0  0  0  0  0  0
    0.7145   -3.7125    0.0000 C   0  0  0  0  0  0  0  0  0  0  0  0
    0.7145   -2.8875    0.0000 C   0  0  0  0  0  0  0  0  0  0  0  0
    0.0000   -2.4750    0.0000 O   0  0  0  0  0  0  0  0  0  0  0  0
    1.4289   -2.4750    0.0000 N   0  0  0  0  0  0  0  0  0  0  0  0
    1.4289   -1.6500    0.0000 C   0  0  0  0  0  0  0  0  0  0  0  0
    0.7145   -1.2375    0.0000 C   0  0  0  0  0  0  0  0  0  0  0  0
    0.7145   -0.4125    0.0000 C   0  0  0  0  0  0  0  0  0  0  0  0
    1.4289    0.0000    0.0000 C   0  0  0  0  0  0  0  0  0  0  0  0
    2.1434   -0.4125    0.0000 C   0  0  0  0  0  0  0  0  0  0  0  0
    2.8579    0.0000    0.0000 N   0  0  0  0  0  0  0  0  0  0  0  0
    3.5724   -0.4125    0.0000 C   0  0  0  0  0  0  0  0  0  0  0  0
    4.2868   -0.0000    0.0000 C   0  0  0  0  0  0  0  0  0  0  0  0
    3.5724   -1.2375    0.0000 C   0  0  0  0  0  0  0  0  0  0  0  0
    2.8579   -1.6500    0.0000 C   0  0  0  0  0  0  0  0  0  0  0  0
    2.1434   -1.2375    0.0000 C   0  0  0  0  0  0  0  0  0  0  0  0
    1.4289   -4.1250    0.0000 C   0  0  0  0  0  0  0  0  0  0  0  0
    1.4289   -4.9500    0.0000 C   0  0  0  0  0  0  0  0  0  0  0  0
    2.1434   -5.3625    0.0000 F   0  0  0  0  0  0  0  0  0  0  0  0
    1.3819   -6.6724    0.0000 C   0  0  0  0  0  0  0  0  0  0  0  0
    2.1665   -6.4175    0.0000 O   0  0  0  0  0  0  0  0  0  0  0  0
    1.1270   -7.4570    0.0000 N   0  0  0  0  0  0  0  0  0  0  0  0
    1.6119   -8.1245    0.0000 C   0  0  0  0  0  0  0  0  0  0  0  0
  1  2  1  0  0  0  0
  2  3  1  0  0  0  0
  3  4  4  0  0  0  0
  4  5  4  0  0  0  0
  5  6  1  0  0  0  0
  6  7  4  0  0  0  0
  7  8  4  0  0  0  0
  8  9  1  0  0  0  0
  9 10  1  0  0  0  0
 10 11  1  0  0  0  0
 10 12  1  0  0  0  0
 12 13  4  0  0  0  0
 13 14  4  0  0  0  0
 14 15  4  0  0  0  0
 15 16  4  0  0  0  0
 16 17  4  0  0  0  0
 12 17  4  0  0  0  0
  8 18  4  0  0  0  0
 18 19  1  0  0  0  0
 19 20  2  0  0  0  0
 19 21  1  0  0  0  0
 21 22  1  0  0  0  0
 22 23  4  0  0  0  0
 23 24  4  0  0  0  0
 24 25  4  0  0  0  0
 25 26  4  0  0  0  0
 26 27  4  0  0  0  0
 27 28  4  0  0  0  0
 28 29  1  0  0  0  0
 28 30  4  0  0  0  0
 30 31  4  0  0  0  0
 31 32  4  0  0  0  0
 22 32  4  0  0  0  0
 26 32  4  0  0  0  0
 18 33  4  0  0  0  0
 33 34  4  0  0  0  0
  6 34  4  0  0  0  0
 34 35  1  0  0  0  0
  5 36  4  0  0  0  0
 36 37  2  0  0  0  0
 36 38  4  0  0  0  0
  3 38  4  0  0  0  0
 38 39  1  0  0  0  0
M  END
> <IC50(uM)>
0.16

> <Outcome>
1.0

> <BindingDB ID>
1098819; 972665

> <BindingDB MonomerID>
470543

> <BindingDB Ligand Name>
4-(3-ethyl-4-methyl-5-oxo-4,5-dihydro-1H-1,2,4-triazol-1-yl)-5-fluoro-N-(2-methylquinolin-5-yl)-2-[(1S)-1-phenylethoxy]benzamide::US10815215, Example 203::US11130745, Example 203; 4-(3-ethyl-4-methyl-5-oxo-4,5-dihydro-1H-1,2,4-triazol-1-yl)-5-fluoro-N-(2-methylquinolin-5-yl)-2-[(1S)-1-phenylethoxy]benzamide::US10815215, Example 203

> <Curation/DataSource>
US Patent

> <Article DOI>
?

> <PMID>
?

> <Patent Number>
US11130745; US10815215

> <Authors>
Gradl, SN; Nguyen, D; Eis, K; Gunther, J; Stellfeld, T; Janzer, A; Christian, S; Muller, T; Sheikh, SE; Sykes, DB; Ferrara, SJ; Krober, M; Merz, C; Niehues, M; Schafer, M; Zimmermann, K; Nising, CF; Gradl, SN; Nguyen, D; Eis, K; Gunther, J; Stellfeld, T; Janzer, A; Christian, S; Muller, T; Sheikh, SE; Zhou, HJ; Zhao, C; Sykes, DB; Ferrara, SJ; Liu, K; Krober, M; Merz, C; Niehues, M; Schafer, M; Zimmermann, K; Nising, CF

> <Link to Ligand in BindingDB>
http://www.bindingdb.org/bind/chemsearch/marvin/MolStructure.jsp?monomerid=470543

> <Link to Ligand-Target Pair in BindingDB>
http://www.bindingdb.org/jsp/dbsearch/PrimarySearch_ki.jsp?energyterm=kJ/mole&tag=r21&monomerid=470543&enzyme=Dihydroorotate+dehydrogenase&column=ki&startPg=0&Increment=50&submit=Search

> <PubChem CID>
134469949

> <PubChem SID>
441609719

$$$$

  Mrv2115 07222212352D          

 23 25  0  0  0  0            999 V2000
    4.1904   -0.1949    0.0000 C   0  0  0  0  0  0  0  0  0  0  0  0
    3.7055   -0.8624    0.0000 C   0  0  0  0  0  0  0  0  0  0  0  0
    3.9604   -1.6470    0.0000 N   0  0  0  0  0  0  0  0  0  0  0  0
    3.2930   -2.1319    0.0000 C   0  0  0  0  0  0  0  0  0  0  0  0
    3.2930   -2.9569    0.0000 C   0  0  0  0  0  0  0  0  0  0  0  0
    2.5785   -3.3694    0.0000 O   0  0  0  0  0  0  0  0  0  0  0  0
    4.0075   -3.3694    0.0000 N   0  0  0  0  0  0  0  0  0  0  0  0
    4.0075   -4.1944    0.0000 C   0  0  0  0  0  0  0  0  0  0  0  0
    4.4200   -4.9089    0.0000 C   0  0  0  0  0  0  0  0  0  0  0  0
    3.5950   -4.9089    0.0000 C   0  0  0  0  0  0  0  0  0  0  0  0
    2.6256   -1.6470    0.0000 C   0  0  0  0  0  0  0  0  0  0  0  0
    2.8805   -0.8624    0.0000 C   0  0  0  0  0  0  0  0  0  0  0  0
    2.3956   -0.1949    0.0000 C   0  0  0  0  0  0  0  0  0  0  0  0
    2.7311    0.5587    0.0000 C   0  0  0  0  0  0  0  0  0  0  0  0
    2.2462    1.2262    0.0000 C   0  0  0  0  0  0  0  0  0  0  0  0
    2.5818    1.9799    0.0000 C   0  0  0  0  0  0  0  0  0  0  0  0
    3.4023    2.0661    0.0000 C   0  0  0  0  0  0  0  0  0  0  0  0
    3.7378    2.8198    0.0000 C   0  0  0  0  0  0  0  0  0  0  0  0
    4.0734    3.5734    0.0000 F   0  0  0  0  0  0  0  0  0  0  0  0
    4.4915    2.4842    0.0000 F   0  0  0  0  0  0  0  0  0  0  0  0
    2.9841    3.1553    0.0000 F   0  0  0  0  0  0  0  0  0  0  0  0
    3.8872    1.3987    0.0000 N   0  0  0  0  0  0  0  0  0  0  0  0
    3.5516    0.6450    0.0000 C   0  0  0  0  0  0  0  0  0  0  0  0
  1  2  1  0  0  0  0
  2  3  4  0  0  0  0
  3  4  4  0  0  0  0
  4  5  1  0  0  0  0
  5  6  2  0  0  0  0
  5  7  1  0  0  0  0
  7  8  1  0  0  0  0
  8  9  1  0  0  0  0
  9 10  1  0  0  0  0
  8 10  1  0  0  0  0
  4 11  4  0  0  0  0
 11 12  4  0  0  0  0
  2 12  4  0  0  0  0
 12 13  1  0  0  0  0
 13 14  1  0  0  0  0
 14 15  4  0  0  0  0
 15 16  4  0  0  0  0
 16 17  4  0  0  0  0
 17 18  1  0  0  0  0
 18 19  1  0  0  0  0
 18 20  1  0  0  0  0
 18 21  1  0  0  0  0
 17 22  4  0  0  0  0
 22 23  4  0  0  0  0
 14 23  4  0  0  0  0
M  STY  1   1 DAT
M  SAL   1  1   3
M  SDT   1 MRV_IMPLICIT_H                                        
M  SDD   1     0.5304   -0.4125    DR    ALL  0       0  
M  SED   1 IMPL_H1
M  END
> <IC50(uM)>
100.0

> <Outcome>
0.0

> <BindingDB ID>
51330095

> <BindingDB MonomerID>
50538343

> <BindingDB Ligand Name>
CHEMBL4648611

> <Curation/DataSource>
ChEMBL

> <Article DOI>
10.1021/acs.jmedchem.0c00311

> <PMID>
32248693

> <Patent Number>
?

> <Authors>
Kokkonda, S; Deng, X; White, KL; El Mazouni, F; White, J; Shackleford, DM; Katneni, K; Chiu, FCK; Barker, H; McLaren, J; Crighton, E; Chen, G; Angulo-Barturen, I; Jimenez-Diaz, MB; Ferrer, S; Huertas-Valentin, L; Martinez-Martinez, MS; Lafuente-Monasterio, MJ; Chittimalla, R; Shahi, SP; Wittlin, S; Waterson, D; Burrows, JN; Matthews, D; Tomchick, D; Rathod, PK; Palmer, MJ; Charman, SA; Phillips, MA

> <Link to Ligand in BindingDB>
http://www.bindingdb.org/bind/chemsearch/marvin/MolStructure.jsp?monomerid=50538343

> <Link to Ligand-Target Pair in BindingDB>
http://www.bindingdb.org/jsp/dbsearch/PrimarySearch_ki.jsp?energyterm=kJ/mole&tag=r21&monomerid=50538343&enzyme=Dihydroorotate+dehydrogenase&column=ki&startPg=0&Increment=50&submit=Search

> <PubChem CID>
156021436

> <PubChem SID>
442139906

$$$$

  Mrv2115 07222212352D          

 38 41  0  0  0  0            999 V2000
   -5.1659    1.4455    0.0000 C   0  0  0  0  0  0  0  0  0  0  0  0
   -4.3409    1.4455    0.0000 C   0  0  0  0  0  0  0  0  0  0  0  0
   -3.9284    2.1599    0.0000 C   0  0  0  0  0  0  0  0  0  0  0  0
   -3.1034    2.1599    0.0000 C   0  0  0  0  0  0  0  0  0  0  0  0
   -2.6909    2.8744    0.0000 C   0  0  0  0  0  0  0  0  0  0  0  0
   -2.2784    3.5889    0.0000 F   0  0  0  0  0  0  0  0  0  0  0  0
   -3.4054    3.2869    0.0000 F   0  0  0  0  0  0  0  0  0  0  0  0
   -1.9765    2.4619    0.0000 F   0  0  0  0  0  0  0  0  0  0  0  0
   -2.6909    1.4455    0.0000 C   0  0  0  0  0  0  0  0  0  0  0  0
   -3.1034    0.7310    0.0000 C   0  0  0  0  0  0  0  0  0  0  0  0
   -3.9284    0.7310    0.0000 C   0  0  0  0  0  0  0  0  0  0  0  0
   -4.3409    0.0165    0.0000 N   0  0  0  0  0  0  0  0  0  0  0  0
   -3.9284   -0.6979    0.0000 C   0  0  0  0  0  0  0  0  0  0  0  0
   -4.3409   -1.4124    0.0000 O   0  0  0  0  0  0  0  0  0  0  0  0
   -3.1034   -0.6979    0.0000 C   0  0  0  0  0  0  0  0  0  0  0  0
   -2.6909    0.0165    0.0000 C   0  0  0  0  0  0  0  0  0  0  0  0
   -1.8659    0.0165    0.0000 C   0  0  0  0  0  0  0  0  0  0  0  0
   -1.4534    0.7310    0.0000 F   0  0  0  0  0  0  0  0  0  0  0  0
   -1.4534   -0.6979    0.0000 C   0  0  0  0  0  0  0  0  0  0  0  0
   -0.6284   -0.6979    0.0000 N   0  0  0  0  0  0  0  0  0  0  0  0
   -0.1435   -1.3654    0.0000 N   0  0  0  0  0  0  0  0  0  0  0  0
    0.6411   -1.1104    0.0000 C   0  0  0  0  0  0  0  0  0  0  0  0
    0.6411   -0.2854    0.0000 N   0  0  0  0  0  0  0  0  0  0  0  0
   -0.1435   -0.0305    0.0000 C   0  0  0  0  0  0  0  0  0  0  0  0
   -0.3984    0.7541    0.0000 O   0  0  0  0  0  0  0  0  0  0  0  0
    1.3556    0.1271    0.0000 C   0  0  0  0  0  0  0  0  0  0  0  0
    2.0701   -0.2854    0.0000 C   0  0  0  0  0  0  0  0  0  0  0  0
    2.0701   -1.1104    0.0000 C   0  0  0  0  0  0  0  0  0  0  0  0
    1.3556   -1.5229    0.0000 C   0  0  0  0  0  0  0  0  0  0  0  0
   -1.8659   -1.4124    0.0000 C   0  0  0  0  0  0  0  0  0  0  0  0
   -2.6909   -1.4124    0.0000 C   0  0  0  0  0  0  0  0  0  0  0  0
   -3.1034   -2.1269    0.0000 O   0  0  0  0  0  0  0  0  0  0  0  0
   -2.6909   -2.8414    0.0000 C   0  0  0  0  0  0  0  0  0  0  0  0
   -1.8659   -2.8414    0.0000 C   0  0  0  0  0  0  0  0  0  0  0  0
   -3.1034   -3.5558    0.0000 C   0  0  0  0  0  0  0  0  0  0  0  0
   -3.8179   -3.1433    0.0000 F   0  0  0  0  0  0  0  0  0  0  0  0
   -2.3890   -3.9683    0.0000 F   0  0  0  0  0  0  0  0  0  0  0  0
   -3.5159   -4.2703    0.0000 F   0  0  0  0  0  0  0  0  0  0  0  0
  1  2  1  0  0  0  0
  2  3  4  0  0  0  0
  3  4  4  0  0  0  0
  4  5  1  0  0  0  0
  5  6  1  0  0  0  0
  5  7  1  0  0  0  0
  5  8  1  0  0  0  0
  4  9  4  0  0  0  0
  9 10  4  0  0  0  0
 10 11  4  0  0  0  0
  2 11  4  0  0  0  0
 11 12  1  0  0  0  0
 12 13  1  0  0  0  0
 13 14  2  0  0  0  0
 13 15  1  0  0  0  0
 15 16  4  0  0  0  0
 16 17  4  0  0  0  0
 17 18  1  0  0  0  0
 17 19  4  0  0  0  0
 19 20  1  0  0  0  0
 20 21  4  0  0  0  0
 21 22  4  0  0  0  0
 22 23  4  0  0  0  0
 23 24  4  0  0  0  0
 20 24  4  0  0  0  0
 24 25  2  0  0  0  0
 23 26  1  0  0  0  0
 26 27  1  0  0  0  0
 27 28  1  0  0  0  0
 28 29  1  0  0  0  0
 22 29  1  0  0  0  0
 19 30  4  0  0  0  0
 30 31  4  0  0  0  0
 15 31  4  0  0  0  0
 31 32  1  0  0  0  0
 32 33  1  0  0  0  0
 33 34  1  0  0  0  0
 33 35  1  0  0  0  0
 35 36  1  0  0  0  0
 35 37  1  0  0  0  0
 35 38  1  0  0  0  0
M  END
> <IC50(uM)>
0.085

> <Outcome>
1.0

> <BindingDB ID>
1020419

> <BindingDB MonomerID>
490370

> <BindingDB Ligand Name>
5-fluoro-N-[2-methyl-4-(trifluoromethyl)phenyl]-4-(3-oxo-5,6,7,8-tetrahydro[1,2,4]triazolo[4,3-a]pyridin-2(3H)-yl)-2-{[(2S)-1,1,1-trifluoropropan-2-yl]oxy}benzamide::US10968216, Example 38

> <Curation/DataSource>
US Patent

> <Article DOI>
?

> <PMID>
?

> <Patent Number>
US10968216

> <Authors>
Gradl, SN; Nguyen, D; Eis, K; Gunther, J; Stellfeld, T; Janzer, A; Christian, S; Mueller, T; Sheikh, SE; Zhou, HJ; Zhao, C; Sykes, DB; Ferrara, SJ; Liu, K; Herbert, SA; Merz, C; Niehues, M; Nising, CF; Schafer, M; Zimmermann, K; Knablein, J; Thede, K; Faupel, T

> <Link to Ligand in BindingDB>
http://www.bindingdb.org/bind/chemsearch/marvin/MolStructure.jsp?monomerid=490370

> <Link to Ligand-Target Pair in BindingDB>
http://www.bindingdb.org/jsp/dbsearch/PrimarySearch_ki.jsp?energyterm=kJ/mole&tag=r21&monomerid=490370&enzyme=Dihydroorotate+dehydrogenase&column=ki&startPg=0&Increment=50&submit=Search

> <PubChem CID>
134474336

> <PubChem SID>
447117097

$$$$

  Mrv2115 07222212352D          

 21 23  0  0  0  0            999 V2000
    4.4871    1.3416    0.0000 C   0  0  0  0  0  0  0  0  0  0  0  0
    5.2016    1.7541    0.0000 C   0  0  0  0  0  0  0  0  0  0  0  0
    5.9161    1.3416    0.0000 C   0  0  0  0  0  0  0  0  0  0  0  0
    6.6306    1.7541    0.0000 N   0  0  0  0  0  0  0  0  0  0  0  0
    7.3450    1.3416    0.0000 C   0  0  0  0  0  0  0  0  0  0  0  0
    7.3450    0.5166    0.0000 O   0  0  0  0  0  0  0  0  0  0  0  0
    8.0595    1.7541    0.0000 C   0  0  0  0  0  0  0  0  0  0  0  0
    8.1457    2.5746    0.0000 C   0  0  0  0  0  0  0  0  0  0  0  0
    8.9527    2.7461    0.0000 C   0  0  0  0  0  0  0  0  0  0  0  0
    9.3652    2.0316    0.0000 C   0  0  0  0  0  0  0  0  0  0  0  0
   10.1857    1.9454    0.0000 N   0  0  0  0  0  0  0  0  0  0  0  0
   10.7377    2.5585    0.0000 C   0  0  0  0  0  0  0  0  0  0  0  0
   10.5662    3.3655    0.0000 C   0  0  0  0  0  0  0  0  0  0  0  0
   11.4914    2.2229    0.0000 C   0  0  0  0  0  0  0  0  0  0  0  0
   11.4052    1.4025    0.0000 C   0  0  0  0  0  0  0  0  0  0  0  0
   11.9572    0.7894    0.0000 C   0  0  0  0  0  0  0  0  0  0  0  0
   11.7023    0.0047    0.0000 C   0  0  0  0  0  0  0  0  0  0  0  0
   10.8953   -0.1668    0.0000 C   0  0  0  0  0  0  0  0  0  0  0  0
   10.3432    0.4463    0.0000 C   0  0  0  0  0  0  0  0  0  0  0  0
   10.5982    1.2309    0.0000 C   0  0  0  0  0  0  0  0  0  0  0  0
    8.8132    1.4185    0.0000 S   0  0  0  0  0  0  0  0  0  0  0  0
  1  2  1  0  0  0  0
  2  3  1  0  0  0  0
  3  4  1  0  0  0  0
  4  5  1  0  0  0  0
  5  6  2  0  0  0  0
  5  7  1  0  0  0  0
  7  8  4  0  0  0  0
  8  9  4  0  0  0  0
  9 10  4  0  0  0  0
 10 11  1  0  0  0  0
 11 12  4  0  0  0  0
 12 13  1  0  0  0  0
 12 14  4  0  0  0  0
 14 15  4  0  0  0  0
 15 16  4  0  0  0  0
 16 17  4  0  0  0  0
 17 18  4  0  0  0  0
 18 19  4  0  0  0  0
 19 20  4  0  0  0  0
 15 20  4  0  0  0  0
 11 20  4  0  0  0  0
 10 21  4  0  0  0  0
  7 21  4  0  0  0  0
M  END
> <IC50(uM)>
30.0

> <Outcome>
0.0

> <BindingDB ID>
200942; 248383; 248276

> <BindingDB MonomerID>
92604

> <BindingDB Ligand Name>
DHOD Inhibitor, 3::US8703811, 1

> <Curation/DataSource>
Curated from the literature by BindingDB; US Patent

> <Article DOI>
10.1074/jbc.M804990200; ?

> <PMID>
18842591; ?

> <Patent Number>
?; US8703811

> <Authors>
Patel, V; Booker, M; Kramer, M; Ross, L; Celatka, CA; Kennedy, LM; Dvorin, JD; Duraisingh, MT; Sliz, P; Wirth, DF; Clardy, J; Bastos, C; Booker, ML; Celatka, CA; Clardy, JC; Cortese, J; Patel, VP; Skerlj, R; Wiegand, RC; Wirth, DF

> <Link to Ligand in BindingDB>
http://www.bindingdb.org/bind/chemsearch/marvin/MolStructure.jsp?monomerid=92604

> <Link to Ligand-Target Pair in BindingDB>
http://www.bindingdb.org/jsp/dbsearch/PrimarySearch_ki.jsp?energyterm=kJ/mole&tag=r21&monomerid=92604&enzyme=Dihydroorotate+dehydrogenase&column=ki&startPg=0&Increment=50&submit=Search

> <PubChem CID>
44481106

> <PubChem SID>
160845101

$$$$

  Mrv2115 07222212352D          

 35 37  0  0  0  0            999 V2000
   -1.4289    8.0036    0.0000 C   0  0  0  0  0  0  0  0  0  0  0  0
   -0.7145    8.4161    0.0000 C   0  0  0  0  0  0  0  0  0  0  0  0
   -0.7145    9.2411    0.0000 C   0  0  0  0  0  0  0  0  0  0  0  0
   -0.0000    9.6536    0.0000 C   0  0  0  0  0  0  0  0  0  0  0  0
    0.7145    9.2411    0.0000 C   0  0  0  0  0  0  0  0  0  0  0  0
    0.7145    8.4161    0.0000 C   0  0  0  0  0  0  0  0  0  0  0  0
    1.4289    8.0036    0.0000 F   0  0  0  0  0  0  0  0  0  0  0  0
   -0.0000    8.0036    0.0000 C   0  0  0  0  0  0  0  0  0  0  0  0
   -0.0000    7.1786    0.0000 N   0  0  0  0  0  0  0  0  0  0  0  0
    0.7145    6.7661    0.0000 C   0  0  0  0  0  0  0  0  0  0  0  0
    1.4289    7.1786    0.0000 O   0  0  0  0  0  0  0  0  0  0  0  0
    0.7145    5.9411    0.0000 C   0  0  0  0  0  0  0  0  0  0  0  0
    1.4289    5.5286    0.0000 C   0  0  0  0  0  0  0  0  0  0  0  0
    1.4289    4.7036    0.0000 C   0  0  0  0  0  0  0  0  0  0  0  0
    2.1434    4.2911    0.0000 F   0  0  0  0  0  0  0  0  0  0  0  0
    0.7145    4.2911    0.0000 C   0  0  0  0  0  0  0  0  0  0  0  0
    0.7145    3.4661    0.0000 N   0  0  0  0  0  0  0  0  0  0  0  0
    0.0470    2.9812    0.0000 N   0  0  0  0  0  0  0  0  0  0  0  0
    0.3020    2.1965    0.0000 C   0  0  0  0  0  0  0  0  0  0  0  0
   -0.1830    1.5291    0.0000 C   0  0  0  0  0  0  0  0  0  0  0  0
    0.1526    0.7754    0.0000 O   0  0  0  0  0  0  0  0  0  0  0  0
   -1.0034    1.6153    0.0000 O   0  0  0  0  0  0  0  0  0  0  0  0
    1.1270    2.1965    0.0000 N   0  0  0  0  0  0  0  0  0  0  0  0
    1.6119    1.5291    0.0000 C   0  0  0  0  0  0  0  0  0  0  0  0
    1.3819    2.9812    0.0000 C   0  0  0  0  0  0  0  0  0  0  0  0
    2.1665    3.2361    0.0000 O   0  0  0  0  0  0  0  0  0  0  0  0
    0.0000    4.7036    0.0000 C   0  0  0  0  0  0  0  0  0  0  0  0
   -0.0000    5.5286    0.0000 C   0  0  0  0  0  0  0  0  0  0  0  0
   -0.7145    5.9411    0.0000 O   0  0  0  0  0  0  0  0  0  0  0  0
   -1.4289    5.5286    0.0000 C   0  0  0  0  0  0  0  0  0  0  0  0
   -1.4289    4.7036    0.0000 C   0  0  0  0  0  0  0  0  0  0  0  0
   -2.1434    5.9411    0.0000 C   0  0  0  0  0  0  0  0  0  0  0  0
   -1.7309    6.6555    0.0000 F   0  0  0  0  0  0  0  0  0  0  0  0
   -2.5559    5.2266    0.0000 F   0  0  0  0  0  0  0  0  0  0  0  0
   -2.8579    6.3536    0.0000 F   0  0  0  0  0  0  0  0  0  0  0  0
  1  2  1  0  0  0  0
  2  3  4  0  0  0  0
  3  4  4  0  0  0  0
  4  5  4  0  0  0  0
  5  6  4  0  0  0  0
  6  7  1  0  0  0  0
  6  8  4  0  0  0  0
  2  8  4  0  0  0  0
  8  9  1  0  0  0  0
  9 10  1  0  0  0  0
 10 11  2  0  0  0  0
 10 12  1  0  0  0  0
 12 13  4  0  0  0  0
 13 14  4  0  0  0  0
 14 15  1  0  0  0  0
 14 16  4  0  0  0  0
 16 17  1  0  0  0  0
 17 18  4  0  0  0  0
 18 19  4  0  0  0  0
 19 20  1  0  0  0  0
 20 21  2  0  0  0  0
 20 22  1  0  0  0  0
 19 23  4  0  0  0  0
 23 24  1  0  0  0  0
 23 25  4  0  0  0  0
 17 25  4  0  0  0  0
 25 26  2  0  0  0  0
 16 27  4  0  0  0  0
 27 28  4  0  0  0  0
 12 28  4  0  0  0  0
 28 29  1  0  0  0  0
 29 30  1  0  0  0  0
 30 31  1  0  0  0  0
 30 32  1  0  0  0  0
 32 33  1  0  0  0  0
 32 34  1  0  0  0  0
 32 35  1  0  0  0  0
M  END
> <IC50(uM)>
0.025

> <Outcome>
1.0

> <BindingDB ID>
1098835; 972681

> <BindingDB MonomerID>
470559

> <BindingDB Ligand Name>
1-(2-fluoro-4-[(2-fluoro-6-methylphenyl)carbamoyl]-5-{[(2S)-1,1,1-trifluoropropan-2-yl]oxy}phenyl)-4-methyl-5-oxo-4,5-dihydro-1H-1,2,4-triazole-3-carboxylic acid::US10815215, Example 219::US11130745, Example 219; 1-(2-fluoro-4-[(2-fluoro-6-methylphenyl)carbamoyl]-5-{[(2S)-1,1,1-trifluoropropan-2-yl]oxy}phenyl)-4-methyl-5-oxo-4,5-dihydro-1H-1,2,4-triazole-3-carboxylic acid::US10815215, Example 219

> <Curation/DataSource>
US Patent

> <Article DOI>
?

> <PMID>
?

> <Patent Number>
US11130745; US10815215

> <Authors>
Gradl, SN; Nguyen, D; Eis, K; Gunther, J; Stellfeld, T; Janzer, A; Christian, S; Muller, T; Sheikh, SE; Sykes, DB; Ferrara, SJ; Krober, M; Merz, C; Niehues, M; Schafer, M; Zimmermann, K; Nising, CF; Gradl, SN; Nguyen, D; Eis, K; Gunther, J; Stellfeld, T; Janzer, A; Christian, S; Muller, T; Sheikh, SE; Zhou, HJ; Zhao, C; Sykes, DB; Ferrara, SJ; Liu, K; Krober, M; Merz, C; Niehues, M; Schafer, M; Zimmermann, K; Nising, CF

> <Link to Ligand in BindingDB>
http://www.bindingdb.org/bind/chemsearch/marvin/MolStructure.jsp?monomerid=470559

> <Link to Ligand-Target Pair in BindingDB>
http://www.bindingdb.org/jsp/dbsearch/PrimarySearch_ki.jsp?energyterm=kJ/mole&tag=r21&monomerid=470559&enzyme=Dihydroorotate+dehydrogenase&column=ki&startPg=0&Increment=50&submit=Search

> <PubChem CID>
134470327

> <PubChem SID>
441609735

$$$$

  Mrv2115 07222212352D          

 23 25  0  0  0  0            999 V2000
    0.7145   -3.7125    0.0000 O   0  0  0  0  0  0  0  0  0  0  0  0
    1.4289   -4.1250    0.0000 C   0  0  0  0  0  0  0  0  0  0  0  0
    2.1434   -3.7125    0.0000 O   0  0  0  0  0  0  0  0  0  0  0  0
    1.4289   -4.9500    0.0000 C   0  0  0  0  0  0  0  0  0  0  0  0
    2.0964   -5.4349    0.0000 C   0  0  0  0  0  0  0  0  0  0  0  0
    2.8810   -5.1800    0.0000 C   0  0  0  0  0  0  0  0  0  0  0  0
    3.4941   -5.7320    0.0000 O   0  0  0  0  0  0  0  0  0  0  0  0
    3.0525   -4.3730    0.0000 N   0  0  0  0  0  0  0  0  0  0  0  0
    3.8372   -4.1181    0.0000 C   0  0  0  0  0  0  0  0  0  0  0  0
    4.0087   -3.3111    0.0000 C   0  0  0  0  0  0  0  0  0  0  0  0
    4.7933   -3.0562    0.0000 C   0  0  0  0  0  0  0  0  0  0  0  0
    5.4064   -3.6082    0.0000 C   0  0  0  0  0  0  0  0  0  0  0  0
    6.1910   -3.3533    0.0000 C   0  0  0  0  0  0  0  0  0  0  0  0
    6.3625   -2.5463    0.0000 C   0  0  0  0  0  0  0  0  0  0  0  0
    7.1472   -2.2913    0.0000 C   0  0  0  0  0  0  0  0  0  0  0  0
    7.7603   -2.8434    0.0000 C   0  0  0  0  0  0  0  0  0  0  0  0
    7.5887   -3.6503    0.0000 C   0  0  0  0  0  0  0  0  0  0  0  0
    6.8041   -3.9053    0.0000 C   0  0  0  0  0  0  0  0  0  0  0  0
    5.2349   -4.4152    0.0000 C   0  0  0  0  0  0  0  0  0  0  0  0
    4.4502   -4.6701    0.0000 C   0  0  0  0  0  0  0  0  0  0  0  0
    1.8414   -6.2195    0.0000 C   0  0  0  0  0  0  0  0  0  0  0  0
    1.0164   -6.2195    0.0000 S   0  0  0  0  0  0  0  0  0  0  0  0
    0.7615   -5.4349    0.0000 C   0  0  0  0  0  0  0  0  0  0  0  0
  1  2  2  0  0  0  0
  2  3  1  0  0  0  0
  2  4  1  0  0  0  0
  4  5  2  0  0  0  0
  5  6  1  0  0  0  0
  6  7  2  0  0  0  0
  6  8  1  0  0  0  0
  8  9  1  0  0  0  0
  9 10  4  0  0  0  0
 10 11  4  0  0  0  0
 11 12  4  0  0  0  0
 12 13  1  0  0  0  0
 13 14  4  0  0  0  0
 14 15  4  0  0  0  0
 15 16  4  0  0  0  0
 16 17  4  0  0  0  0
 17 18  4  0  0  0  0
 13 18  4  0  0  0  0
 12 19  4  0  0  0  0
 19 20  4  0  0  0  0
  9 20  4  0  0  0  0
  5 21  1  0  0  0  0
 21 22  1  0  0  0  0
 22 23  1  0  0  0  0
  4 23  1  0  0  0  0
M  END
> <IC50(uM)>
0.667

> <Outcome>
1.0

> <BindingDB ID>
50319902

> <BindingDB MonomerID>
50173157

> <BindingDB Ligand Name>
4-(Biphenyl-4-ylcarbamoyl)-2,5-dihydro-thiophene-3-carboxylic acid::CHEMBL372101

> <Curation/DataSource>
ChEMBL

> <Article DOI>
10.1016/j.bmcl.2005.07.053

> <PMID>
16143532

> <Patent Number>
?

> <Authors>
Leban, J; Kralik, M; Mies, J; Gassen, M; Tentschert, K; Baumgartner, R

> <Link to Ligand in BindingDB>
http://www.bindingdb.org/bind/chemsearch/marvin/MolStructure.jsp?monomerid=50173157

> <Link to Ligand-Target Pair in BindingDB>
http://www.bindingdb.org/jsp/dbsearch/PrimarySearch_ki.jsp?energyterm=kJ/mole&tag=r21&monomerid=50173157&enzyme=Dihydroorotate+dehydrogenase&column=ki&startPg=0&Increment=50&submit=Search

> <PubChem CID>
21084861

> <PubChem SID>
104059128

$$$$

  Mrv2115 07222212352D          

 20 22  0  0  0  0            999 V2000
    4.4871    1.3416    0.0000 C   0  0  0  0  0  0  0  0  0  0  0  0
    5.2016    1.7541    0.0000 C   0  0  0  0  0  0  0  0  0  0  0  0
    5.9161    1.3416    0.0000 C   0  0  0  0  0  0  0  0  0  0  0  0
    6.6306    1.7541    0.0000 N   0  0  0  0  0  0  0  0  0  0  0  0
    7.3450    1.3416    0.0000 C   0  0  0  0  0  0  0  0  0  0  0  0
    7.3450    0.5166    0.0000 S   0  0  0  0  0  0  0  0  0  0  0  0
    8.0595    1.7541    0.0000 C   0  0  0  0  0  0  0  0  0  0  0  0
    8.1457    2.5746    0.0000 C   0  0  0  0  0  0  0  0  0  0  0  0
    8.9527    2.7461    0.0000 C   0  0  0  0  0  0  0  0  0  0  0  0
    9.3652    2.0316    0.0000 C   0  0  0  0  0  0  0  0  0  0  0  0
   10.1857    1.9454    0.0000 N   0  0  0  0  0  0  0  0  0  0  0  0
   10.7377    2.5585    0.0000 C   0  0  0  0  0  0  0  0  0  0  0  0
   11.4914    2.2229    0.0000 C   0  0  0  0  0  0  0  0  0  0  0  0
   11.4052    1.4025    0.0000 C   0  0  0  0  0  0  0  0  0  0  0  0
   11.9572    0.7894    0.0000 C   0  0  0  0  0  0  0  0  0  0  0  0
   11.7023    0.0047    0.0000 C   0  0  0  0  0  0  0  0  0  0  0  0
   10.8953   -0.1668    0.0000 C   0  0  0  0  0  0  0  0  0  0  0  0
   10.3432    0.4463    0.0000 C   0  0  0  0  0  0  0  0  0  0  0  0
   10.5982    1.2309    0.0000 C   0  0  0  0  0  0  0  0  0  0  0  0
    8.8132    1.4185    0.0000 S   0  0  0  0  0  0  0  0  0  0  0  0
  1  2  1  0  0  0  0
  2  3  1  0  0  0  0
  3  4  1  0  0  0  0
  4  5  1  0  0  0  0
  5  6  2  0  0  0  0
  5  7  1  0  0  0  0
  7  8  4  0  0  0  0
  8  9  4  0  0  0  0
  9 10  4  0  0  0  0
 10 11  1  0  0  0  0
 11 12  4  0  0  0  0
 12 13  4  0  0  0  0
 13 14  4  0  0  0  0
 14 15  4  0  0  0  0
 15 16  4  0  0  0  0
 16 17  4  0  0  0  0
 17 18  4  0  0  0  0
 18 19  4  0  0  0  0
 14 19  4  0  0  0  0
 11 19  4  0  0  0  0
 10 20  4  0  0  0  0
  7 20  4  0  0  0  0
M  END
> <IC50(uM)>
30.0

> <Outcome>
0.0

> <BindingDB ID>
248384

> <BindingDB MonomerID>
120278

> <BindingDB Ligand Name>
US8703811, 7

> <Curation/DataSource>
US Patent

> <Article DOI>
?

> <PMID>
?

> <Patent Number>
US8703811

> <Authors>
Bastos, C; Booker, ML; Celatka, CA; Clardy, JC; Cortese, J; Patel, VP; Skerlj, R; Wiegand, RC; Wirth, DF

> <Link to Ligand in BindingDB>
http://www.bindingdb.org/bind/chemsearch/marvin/MolStructure.jsp?monomerid=120278

> <Link to Ligand-Target Pair in BindingDB>
http://www.bindingdb.org/jsp/dbsearch/PrimarySearch_ki.jsp?energyterm=kJ/mole&tag=r21&monomerid=120278&enzyme=Dihydroorotate+dehydrogenase&column=ki&startPg=0&Increment=50&submit=Search

> <PubChem CID>
58284881

> <PubChem SID>
220231072

$$$$

  Mrv2115 07222212352D          

 32 36  0  0  0  0            999 V2000
    0.8838   -2.1500    0.0000 C   0  0  0  0  0  0  0  0  0  0  0  0
    1.1387   -1.3654    0.0000 N   0  0  0  0  0  0  0  0  0  0  0  0
    0.6538   -0.6979    0.0000 N   0  0  0  0  0  0  0  0  0  0  0  0
    1.1387   -0.0305    0.0000 N   0  0  0  0  0  0  0  0  0  0  0  0
    1.9233   -0.2854    0.0000 C   0  0  0  0  0  0  0  0  0  0  0  0
    2.6378    0.1271    0.0000 C   0  0  0  0  0  0  0  0  0  0  0  0
    3.3523   -0.2854    0.0000 C   0  0  0  0  0  0  0  0  0  0  0  0
    4.0668    0.1271    0.0000 C   0  0  0  0  0  0  0  0  0  0  0  0
    4.0668    0.9521    0.0000 C   0  0  0  0  0  0  0  0  0  0  0  0
    4.7812    1.3646    0.0000 C   0  0  0  0  0  0  0  0  0  0  0  0
    5.4957    0.9521    0.0000 C   0  0  0  0  0  0  0  0  0  0  0  0
    6.2102    1.3646    0.0000 C   0  0  0  0  0  0  0  0  0  0  0  0
    6.2102    2.1896    0.0000 C   0  0  0  0  0  0  0  0  0  0  0  0
    6.9246    2.6021    0.0000 C   0  0  0  0  0  0  0  0  0  0  0  0
    7.6391    2.1896    0.0000 C   0  0  0  0  0  0  0  0  0  0  0  0
    7.6391    1.3646    0.0000 C   0  0  0  0  0  0  0  0  0  0  0  0
    8.3536    0.9521    0.0000 C   0  0  0  0  0  0  0  0  0  0  0  0
    8.3536    0.1271    0.0000 N   0  0  0  0  0  0  0  0  0  0  0  0
    9.0681   -0.2854    0.0000 C   0  0  0  0  0  0  0  0  0  0  0  0
    9.0681   -1.1104    0.0000 C   0  0  0  0  0  0  0  0  0  0  0  0
    8.3536   -1.5229    0.0000 O   0  0  0  0  0  0  0  0  0  0  0  0
    7.6391   -1.1104    0.0000 C   0  0  0  0  0  0  0  0  0  0  0  0
    7.6391   -0.2854    0.0000 C   0  0  0  0  0  0  0  0  0  0  0  0
    6.9246    0.9521    0.0000 C   0  0  0  0  0  0  0  0  0  0  0  0
    5.4957    0.1271    0.0000 C   0  0  0  0  0  0  0  0  0  0  0  0
    4.7812   -0.2854    0.0000 C   0  0  0  0  0  0  0  0  0  0  0  0
    3.3523   -1.1104    0.0000 C   0  0  0  0  0  0  0  0  0  0  0  0
    2.6378   -1.5229    0.0000 C   0  0  0  0  0  0  0  0  0  0  0  0
    2.6378   -2.3479    0.0000 C   0  0  0  0  0  0  0  0  0  0  0  0
    1.9233   -2.7604    0.0000 O   0  0  0  0  0  0  0  0  0  0  0  0
    3.3523   -2.7604    0.0000 O   0  0  0  0  0  0  0  0  0  0  0  0
    1.9233   -1.1104    0.0000 C   0  0  0  0  0  0  0  0  0  0  0  0
  1  2  1  0  0  0  0
  2  3  4  0  0  0  0
  3  4  4  0  0  0  0
  4  5  4  0  0  0  0
  5  6  4  0  0  0  0
  6  7  4  0  0  0  0
  7  8  1  0  0  0  0
  8  9  4  0  0  0  0
  9 10  4  0  0  0  0
 10 11  4  0  0  0  0
 11 12  1  0  0  0  0
 12 13  4  0  0  0  0
 13 14  4  0  0  0  0
 14 15  4  0  0  0  0
 15 16  4  0  0  0  0
 16 17  1  0  0  0  0
 17 18  1  0  0  0  0
 18 19  1  0  0  0  0
 19 20  1  0  0  0  0
 20 21  1  0  0  0  0
 21 22  1  0  0  0  0
 22 23  1  0  0  0  0
 18 23  1  0  0  0  0
 16 24  4  0  0  0  0
 12 24  4  0  0  0  0
 11 25  4  0  0  0  0
 25 26  4  0  0  0  0
  8 26  4  0  0  0  0
  7 27  4  0  0  0  0
 27 28  4  0  0  0  0
 28 29  1  0  0  0  0
 29 30  2  0  0  0  0
 29 31  1  0  0  0  0
 28 32  4  0  0  0  0
  5 32  4  0  0  0  0
  2 32  4  0  0  0  0
M  END
> <IC50(uM)>
1.0

> <Outcome>
1.0

> <BindingDB ID>
1100176

> <BindingDB MonomerID>
520635

> <BindingDB Ligand Name>
1-methyl-5-(3'-(morpholinomethyl)-[1,1'-biphenyl]-4-yl)-1H-benzo[d][1,2,3]triazole- 7-carboxylic acid;::US11147801, Compound 15

> <Curation/DataSource>
US Patent

> <Article DOI>
?

> <PMID>
?

> <Patent Number>
US11147801

> <Authors>
Nellore, K; Hosahalli, S

> <Link to Ligand in BindingDB>
http://www.bindingdb.org/bind/chemsearch/marvin/MolStructure.jsp?monomerid=520635

> <Link to Ligand-Target Pair in BindingDB>
http://www.bindingdb.org/jsp/dbsearch/PrimarySearch_ki.jsp?energyterm=kJ/mole&tag=r21&monomerid=520635&enzyme=Dihydroorotate+dehydrogenase&column=ki&startPg=0&Increment=50&submit=Search

> <PubChem CID>
?

> <PubChem SID>
?

$$$$

  Mrv2115 07222212352D          

 23 25  0  0  0  0            999 V2000
    0.7145    3.7125    0.0000 C   0  0  0  0  0  0  0  0  0  0  0  0
    1.4289    3.3000    0.0000 N   0  0  0  0  0  0  0  0  0  0  0  0
    2.1434    3.7125    0.0000 C   0  0  0  0  0  0  0  0  0  0  0  0
    1.4289    2.4750    0.0000 C   0  0  0  0  0  0  0  0  0  0  0  0
    2.1434    2.0625    0.0000 C   0  0  0  0  0  0  0  0  0  0  0  0
    2.1434    1.2375    0.0000 C   0  0  0  0  0  0  0  0  0  0  0  0
    1.4289    0.8250    0.0000 C   0  0  0  0  0  0  0  0  0  0  0  0
    1.4289   -0.0000    0.0000 N   0  0  0  0  0  0  0  0  0  0  0  0
    0.7145   -0.4125    0.0000 C   0  0  0  0  0  0  0  0  0  0  0  0
    0.0000    0.0000    0.0000 S   0  0  0  0  0  0  0  0  0  0  0  0
    0.7145   -1.2375    0.0000 C   0  0  0  0  0  0  0  0  0  0  0  0
    1.3819   -1.7224    0.0000 C   0  0  0  0  0  0  0  0  0  0  0  0
    1.1270   -2.5070    0.0000 N   0  0  0  0  0  0  0  0  0  0  0  0
    0.3020   -2.5070    0.0000 O   0  0  0  0  0  0  0  0  0  0  0  0
    0.0470   -1.7224    0.0000 C   0  0  0  0  0  0  0  0  0  0  0  0
   -0.7376   -1.4675    0.0000 C   0  0  0  0  0  0  0  0  0  0  0  0
   -1.3507   -2.0195    0.0000 C   0  0  0  0  0  0  0  0  0  0  0  0
   -2.1353   -1.7646    0.0000 C   0  0  0  0  0  0  0  0  0  0  0  0
   -2.3068   -0.9576    0.0000 C   0  0  0  0  0  0  0  0  0  0  0  0
   -1.6937   -0.4056    0.0000 C   0  0  0  0  0  0  0  0  0  0  0  0
   -0.9091   -0.6605    0.0000 C   0  0  0  0  0  0  0  0  0  0  0  0
    0.7145    1.2375    0.0000 C   0  0  0  0  0  0  0  0  0  0  0  0
    0.7145    2.0625    0.0000 C   0  0  0  0  0  0  0  0  0  0  0  0
  1  2  1  0  0  0  0
  2  3  1  0  0  0  0
  2  4  1  0  0  0  0
  4  5  4  0  0  0  0
  5  6  4  0  0  0  0
  6  7  4  0  0  0  0
  7  8  1  0  0  0  0
  8  9  1  0  0  0  0
  9 10  2  0  0  0  0
  9 11  1  0  0  0  0
 11 12  4  0  0  0  0
 12 13  4  0  0  0  0
 13 14  4  0  0  0  0
 14 15  4  0  0  0  0
 11 15  4  0  0  0  0
 15 16  1  0  0  0  0
 16 17  1  0  0  0  0
 17 18  1  0  0  0  0
 18 19  1  0  0  0  0
 19 20  1  0  0  0  0
 20 21  1  0  0  0  0
 16 21  1  0  0  0  0
  7 22  4  0  0  0  0
 22 23  4  0  0  0  0
  4 23  4  0  0  0  0
M  END
> <IC50(uM)>
50.0

> <Outcome>
0.0

> <BindingDB ID>
50123294

> <BindingDB MonomerID>
50071386

> <BindingDB Ligand Name>
5-Cyclohexyl-isoxazole-4-carbothioic acid (4-dimethylamino-phenyl)-amide::CHEMBL305052

> <Curation/DataSource>
ChEMBL

> <Article DOI>
10.1016/s0960-894x(98)00365-5

> <PMID>
9873513

> <Patent Number>
?

> <Authors>
Albert, R; Knecht, H; Andersen, E; Hungerford, V; Schreier, MH; Papageorgiou, C

> <Link to Ligand in BindingDB>
http://www.bindingdb.org/bind/chemsearch/marvin/MolStructure.jsp?monomerid=50071386

> <Link to Ligand-Target Pair in BindingDB>
http://www.bindingdb.org/jsp/dbsearch/PrimarySearch_ki.jsp?energyterm=kJ/mole&tag=r21&monomerid=50071386&enzyme=Dihydroorotate+dehydrogenase&column=ki&startPg=0&Increment=50&submit=Search

> <PubChem CID>
44310384

> <PubChem SID>
103965140

$$$$

  Mrv2115 07222212352D          

 32 35  0  0  0  0            999 V2000
    0.0000   -2.4750    0.0000 C   0  0  0  0  0  0  0  0  0  0  0  0
    0.0000   -1.6500    0.0000 C   0  0  0  0  0  0  0  0  0  0  0  0
    0.7145   -1.2375    0.0000 C   0  0  0  0  0  0  0  0  0  0  0  0
    0.7145   -0.4125    0.0000 C   0  0  0  0  0  0  0  0  0  0  0  0
    1.4289    0.0000    0.0000 C   0  0  0  0  0  0  0  0  0  0  0  0
    2.1434   -0.4125    0.0000 C   0  0  0  0  0  0  0  0  0  0  0  0
    2.8579    0.0000    0.0000 N   0  0  0  0  0  0  0  0  0  0  0  0
    3.5724   -0.4125    0.0000 C   0  0  0  0  0  0  0  0  0  0  0  0
    4.2868   -0.0000    0.0000 C   0  0  0  0  0  0  0  0  0  0  0  0
    5.0013   -0.4125    0.0000 O   0  0  0  0  0  0  0  0  0  0  0  0
    4.2868    0.8250    0.0000 N   0  0  0  0  0  0  0  0  0  0  0  0
    5.0013    1.2375    0.0000 C   0  0  0  0  0  0  0  0  0  0  0  0
    5.0013    2.0625    0.0000 C   0  0  0  0  0  0  0  0  0  0  0  0
    4.2868    2.4750    0.0000 F   0  0  0  0  0  0  0  0  0  0  0  0
    5.7158    2.4750    0.0000 C   0  0  0  0  0  0  0  0  0  0  0  0
    6.4302    2.0625    0.0000 C   0  0  0  0  0  0  0  0  0  0  0  0
    7.1447    2.4750    0.0000 C   0  0  0  0  0  0  0  0  0  0  0  0
    7.1447    3.3000    0.0000 C   0  0  0  0  0  0  0  0  0  0  0  0
    7.8592    3.7125    0.0000 C   0  0  0  0  0  0  0  0  0  0  0  0
    8.5737    3.3000    0.0000 C   0  0  0  0  0  0  0  0  0  0  0  0
    8.5737    2.4750    0.0000 C   0  0  0  0  0  0  0  0  0  0  0  0
    9.2881    2.0625    0.0000 F   0  0  0  0  0  0  0  0  0  0  0  0
    7.8592    2.0625    0.0000 C   0  0  0  0  0  0  0  0  0  0  0  0
    6.4302    1.2375    0.0000 C   0  0  0  0  0  0  0  0  0  0  0  0
    5.7158    0.8250    0.0000 C   0  0  0  0  0  0  0  0  0  0  0  0
    5.7158   -0.0000    0.0000 F   0  0  0  0  0  0  0  0  0  0  0  0
    3.5724   -1.2375    0.0000 C   0  0  0  0  0  0  0  0  0  0  0  0
    4.2868   -1.6500    0.0000 C   0  0  0  0  0  0  0  0  0  0  0  0
    2.8579   -1.6500    0.0000 C   0  0  0  0  0  0  0  0  0  0  0  0
    2.8579   -2.4750    0.0000 O   0  0  0  0  0  0  0  0  0  0  0  0
    2.1434   -1.2375    0.0000 C   0  0  0  0  0  0  0  0  0  0  0  0
    1.4289   -1.6500    0.0000 C   0  0  0  0  0  0  0  0  0  0  0  0
  1  2  1  0  0  0  0
  2  3  1  0  0  0  0
  3  4  4  0  0  0  0
  4  5  4  0  0  0  0
  5  6  4  0  0  0  0
  6  7  4  0  0  0  0
  7  8  4  0  0  0  0
  8  9  1  0  0  0  0
  9 10  2  0  0  0  0
  9 11  1  0  0  0  0
 11 12  1  0  0  0  0
 12 13  4  0  0  0  0
 13 14  1  0  0  0  0
 13 15  4  0  0  0  0
 15 16  4  0  0  0  0
 16 17  1  0  0  0  0
 17 18  4  0  0  0  0
 18 19  4  0  0  0  0
 19 20  4  0  0  0  0
 20 21  4  0  0  0  0
 21 22  1  0  0  0  0
 21 23  4  0  0  0  0
 17 23  4  0  0  0  0
 16 24  4  0  0  0  0
 24 25  4  0  0  0  0
 12 25  4  0  0  0  0
 25 26  1  0  0  0  0
  8 27  4  0  0  0  0
 27 28  1  0  0  0  0
 27 29  4  0  0  0  0
 29 30  1  0  0  0  0
 29 31  4  0  0  0  0
  6 31  4  0  0  0  0
 31 32  4  0  0  0  0
  3 32  4  0  0  0  0
M  END
> <IC50(uM)>
3.21

> <Outcome>
0.0

> <BindingDB ID>
50107537

> <BindingDB MonomerID>
50020690

> <BindingDB Ligand Name>
CHEMBL3290833

> <Curation/DataSource>
ChEMBL

> <Article DOI>
10.1016/j.ejmech.2014.05.064

> <PMID>
24929289

> <Patent Number>
?

> <Authors>
Vyas, VK; Variya, B; Ghate, MD

> <Link to Ligand in BindingDB>
http://www.bindingdb.org/bind/chemsearch/marvin/MolStructure.jsp?monomerid=50020690

> <Link to Ligand-Target Pair in BindingDB>
http://www.bindingdb.org/jsp/dbsearch/PrimarySearch_ki.jsp?energyterm=kJ/mole&tag=r21&monomerid=50020690&enzyme=Dihydroorotate+dehydrogenase&column=ki&startPg=0&Increment=50&submit=Search

> <PubChem CID>
90644865

> <PubChem SID>
103931449

$$$$

  Mrv2115 07222212352D          

 19 20  0  0  0  0            999 V2000
    2.0367    0.3509    0.0000 N   0  0  0  0  0  0  0  0  0  0  0  0
    2.0367   -0.4741    0.0000 C   0  0  0  0  0  0  0  0  0  0  0  0
    2.0367   -1.2991    0.0000 C   0  0  0  0  0  0  0  0  0  0  0  0
    2.7041   -1.7840    0.0000 C   0  0  0  0  0  0  0  0  0  0  0  0
    3.4888   -1.5291    0.0000 N   0  0  0  0  0  0  0  0  0  0  0  0
    2.4492   -2.5687    0.0000 N   0  0  0  0  0  0  0  0  0  0  0  0
    1.6242   -2.5687    0.0000 N   0  0  0  0  0  0  0  0  0  0  0  0
    1.3693   -1.7840    0.0000 C   0  0  0  0  0  0  0  0  0  0  0  0
    0.5846   -1.5291    0.0000 N   0  0  0  0  0  0  0  0  0  0  0  0
    0.4131   -0.7221    0.0000 C   0  0  0  0  0  0  0  0  0  0  0  0
   -0.3715   -0.4672    0.0000 C   0  0  0  0  0  0  0  0  0  0  0  0
   -0.5430    0.3398    0.0000 C   0  0  0  0  0  0  0  0  0  0  0  0
    0.0701    0.8918    0.0000 C   0  0  0  0  0  0  0  0  0  0  0  0
   -0.1015    1.6988    0.0000 C   0  0  0  0  0  0  0  0  0  0  0  0
   -0.2730    2.5058    0.0000 F   0  0  0  0  0  0  0  0  0  0  0  0
    0.7055    1.8703    0.0000 F   0  0  0  0  0  0  0  0  0  0  0  0
   -0.9084    1.5273    0.0000 F   0  0  0  0  0  0  0  0  0  0  0  0
    0.8547    0.6369    0.0000 C   0  0  0  0  0  0  0  0  0  0  0  0
    1.0262   -0.1701    0.0000 C   0  0  0  0  0  0  0  0  0  0  0  0
  1  2  3  0  0  0  0
  2  3  1  0  0  0  0
  3  4  4  0  0  0  0
  4  5  1  0  0  0  0
  4  6  4  0  0  0  0
  6  7  4  0  0  0  0
  7  8  4  0  0  0  0
  3  8  4  0  0  0  0
  8  9  1  0  0  0  0
  9 10  1  0  0  0  0
 10 11  4  0  0  0  0
 11 12  4  0  0  0  0
 12 13  4  0  0  0  0
 13 14  1  0  0  0  0
 14 15  1  0  0  0  0
 14 16  1  0  0  0  0
 14 17  1  0  0  0  0
 13 18  4  0  0  0  0
 18 19  4  0  0  0  0
 10 19  4  0  0  0  0
M  STY  1   1 DAT
M  SAL   1  1   7
M  SDT   1 MRV_IMPLICIT_H                                        
M  SDD   1     0.5304   -0.4125    DR    ALL  0       0  
M  SED   1 IMPL_H1
M  END
> <IC50(uM)>
50.0

> <Outcome>
0.0

> <BindingDB ID>
50786792

> <BindingDB MonomerID>
50066602

> <BindingDB Ligand Name>
5-Amino-3-(4-trifluoromethyl-phenylamino)-1H-pyrazole-4-carbonitrile::CHEMBL119193

> <Curation/DataSource>
ChEMBL

> <Article DOI>
10.1021/jm981028c

> <PMID>
9719606

> <Patent Number>
?

> <Authors>
Papageorgiou, C; Albert, R; Floersheim, P; Lemaire, M; Bitch, F; Weber, HP; Andersen, E; Hungerford, V; Schreier, MH

> <Link to Ligand in BindingDB>
http://www.bindingdb.org/bind/chemsearch/marvin/MolStructure.jsp?monomerid=50066602

> <Link to Ligand-Target Pair in BindingDB>
http://www.bindingdb.org/jsp/dbsearch/PrimarySearch_ki.jsp?energyterm=kJ/mole&tag=r21&monomerid=50066602&enzyme=Dihydroorotate+dehydrogenase&column=ki&startPg=0&Increment=50&submit=Search

> <PubChem CID>
10515945

> <PubChem SID>
103961222

$$$$

  Mrv2115 07222212352D          

 22 24  0  0  0  0            999 V2000
   -2.5067   -4.6160    0.0000 C   0  0  0  0  0  0  0  0  0  0  0  0
   -1.8936   -4.0640    0.0000 C   0  0  0  0  0  0  0  0  0  0  0  0
   -2.0652   -3.2570    0.0000 O   0  0  0  0  0  0  0  0  0  0  0  0
   -1.4521   -2.7050    0.0000 C   0  0  0  0  0  0  0  0  0  0  0  0
   -1.6236   -1.8980    0.0000 O   0  0  0  0  0  0  0  0  0  0  0  0
   -0.6674   -2.9599    0.0000 C   0  0  0  0  0  0  0  0  0  0  0  0
   -0.4125   -3.7445    0.0000 C   0  0  0  0  0  0  0  0  0  0  0  0
   -0.8974   -4.4120    0.0000 O   0  0  0  0  0  0  0  0  0  0  0  0
    0.4125   -3.7445    0.0000 C   0  0  0  0  0  0  0  0  0  0  0  0
    0.6674   -2.9599    0.0000 S   0  0  0  0  0  0  0  0  0  0  0  0
    0.0000   -2.4750    0.0000 C   0  0  0  0  0  0  0  0  0  0  0  0
    0.0000   -1.6500    0.0000 N   0  0  0  0  0  0  0  0  0  0  0  0
    0.7145   -1.2375    0.0000 C   0  0  0  0  0  0  0  0  0  0  0  0
    0.7145   -0.4125    0.0000 C   0  0  0  0  0  0  0  0  0  0  0  0
    1.4289    0.0000    0.0000 N   0  0  0  0  0  0  0  0  0  0  0  0
    2.1434   -0.4125    0.0000 C   0  0  0  0  0  0  0  0  0  0  0  0
    2.8579    0.0000    0.0000 C   0  0  0  0  0  0  0  0  0  0  0  0
    3.5724   -0.4125    0.0000 C   0  0  0  0  0  0  0  0  0  0  0  0
    3.5724   -1.2375    0.0000 C   0  0  0  0  0  0  0  0  0  0  0  0
    2.8579   -1.6500    0.0000 C   0  0  0  0  0  0  0  0  0  0  0  0
    2.1434   -1.2375    0.0000 C   0  0  0  0  0  0  0  0  0  0  0  0
    1.4289   -1.6500    0.0000 C   0  0  0  0  0  0  0  0  0  0  0  0
  1  2  1  0  0  0  0
  2  3  1  0  0  0  0
  3  4  1  0  0  0  0
  4  5  2  0  0  0  0
  4  6  1  0  0  0  0
  6  7  4  0  0  0  0
  7  8  1  0  0  0  0
  7  9  4  0  0  0  0
  9 10  4  0  0  0  0
 10 11  4  0  0  0  0
  6 11  4  0  0  0  0
 11 12  1  0  0  0  0
 12 13  1  0  0  0  0
 13 14  4  0  0  0  0
 14 15  4  0  0  0  0
 15 16  4  0  0  0  0
 16 17  4  0  0  0  0
 17 18  4  0  0  0  0
 18 19  4  0  0  0  0
 19 20  4  0  0  0  0
 20 21  4  0  0  0  0
 16 21  4  0  0  0  0
 21 22  4  0  0  0  0
 13 22  4  0  0  0  0
M  END
> <IC50(uM)>
50.0

> <Outcome>
0.0

> <BindingDB ID>
51079171

> <BindingDB MonomerID>
50441279

> <BindingDB Ligand Name>
CHEMBL2431514

> <Curation/DataSource>
ChEMBL

> <Article DOI>
10.1021/jm400938g

> <PMID>
24073986

> <Patent Number>
?

> <Authors>
Xu, M; Zhu, J; Diao, Y; Zhou, H; Ren, X; Sun, D; Huang, J; Han, D; Zhao, Z; Zhu, L; Xu, Y; Li, H

> <Link to Ligand in BindingDB>
http://www.bindingdb.org/bind/chemsearch/marvin/MolStructure.jsp?monomerid=50441279

> <Link to Ligand-Target Pair in BindingDB>
http://www.bindingdb.org/jsp/dbsearch/PrimarySearch_ki.jsp?energyterm=kJ/mole&tag=r21&monomerid=50441279&enzyme=Dihydroorotate+dehydrogenase&column=ki&startPg=0&Increment=50&submit=Search

> <PubChem CID>
91898840

> <PubChem SID>
175453596

$$$$

  Mrv2115 07222212352D          

 34 37  0  0  0  0            999 V2000
   -2.9599    2.1904    0.0000 C   0  0  0  0  0  0  0  0  0  0  0  0
   -2.5474    1.4760    0.0000 C   0  0  0  0  0  0  0  0  0  0  0  0
   -2.9599    0.7615    0.0000 O   0  0  0  0  0  0  0  0  0  0  0  0
   -2.5474    0.0470    0.0000 C   0  0  0  0  0  0  0  0  0  0  0  0
   -1.7224    0.0470    0.0000 C   0  0  0  0  0  0  0  0  0  0  0  0
   -1.3099   -0.6674    0.0000 C   0  0  0  0  0  0  0  0  0  0  0  0
   -0.4849   -0.6674    0.0000 N   0  0  0  0  0  0  0  0  0  0  0  0
   -0.0000   -1.3349    0.0000 N   0  0  0  0  0  0  0  0  0  0  0  0
    0.7846   -1.0799    0.0000 C   0  0  0  0  0  0  0  0  0  0  0  0
    0.7846   -0.2549    0.0000 N   0  0  0  0  0  0  0  0  0  0  0  0
   -0.0000    0.0000    0.0000 C   0  0  0  0  0  0  0  0  0  0  0  0
   -0.2549    0.7846    0.0000 O   0  0  0  0  0  0  0  0  0  0  0  0
    1.5692    0.0000    0.0000 C   0  0  0  0  0  0  0  0  0  0  0  0
    2.0542   -0.6674    0.0000 C   0  0  0  0  0  0  0  0  0  0  0  0
    1.5692   -1.3349    0.0000 S   0  0  0  0  0  0  0  0  0  0  0  0
   -1.7224   -1.3819    0.0000 C   0  0  0  0  0  0  0  0  0  0  0  0
   -1.3099   -2.0964    0.0000 F   0  0  0  0  0  0  0  0  0  0  0  0
   -2.5474   -1.3819    0.0000 C   0  0  0  0  0  0  0  0  0  0  0  0
   -2.9599   -0.6674    0.0000 C   0  0  0  0  0  0  0  0  0  0  0  0
   -3.7849   -0.6674    0.0000 C   0  0  0  0  0  0  0  0  0  0  0  0
   -4.1974    0.0470    0.0000 O   0  0  0  0  0  0  0  0  0  0  0  0
   -4.1974   -1.3819    0.0000 N   0  0  0  0  0  0  0  0  0  0  0  0
   -5.0224   -1.3819    0.0000 C   0  0  0  0  0  0  0  0  0  0  0  0
   -5.4349   -2.0964    0.0000 C   0  0  0  0  0  0  0  0  0  0  0  0
   -5.0224   -2.8109    0.0000 F   0  0  0  0  0  0  0  0  0  0  0  0
   -6.2599   -2.0964    0.0000 C   0  0  0  0  0  0  0  0  0  0  0  0
   -6.6724   -1.3819    0.0000 C   0  0  0  0  0  0  0  0  0  0  0  0
   -6.2599   -0.6674    0.0000 C   0  0  0  0  0  0  0  0  0  0  0  0
   -5.4349   -0.6674    0.0000 C   0  0  0  0  0  0  0  0  0  0  0  0
   -5.0224    0.0470    0.0000 F   0  0  0  0  0  0  0  0  0  0  0  0
   -1.7224    1.4760    0.0000 C   0  0  0  0  0  0  0  0  0  0  0  0
   -1.7224    0.6510    0.0000 F   0  0  0  0  0  0  0  0  0  0  0  0
   -1.7224    2.3010    0.0000 F   0  0  0  0  0  0  0  0  0  0  0  0
   -0.8974    1.4760    0.0000 F   0  0  0  0  0  0  0  0  0  0  0  0
  1  2  1  0  0  0  0
  2  3  1  0  0  0  0
  3  4  1  0  0  0  0
  4  5  4  0  0  0  0
  5  6  4  0  0  0  0
  6  7  1  0  0  0  0
  7  8  4  0  0  0  0
  8  9  4  0  0  0  0
  9 10  4  0  0  0  0
 10 11  4  0  0  0  0
  7 11  4  0  0  0  0
 11 12  2  0  0  0  0
 10 13  1  0  0  0  0
 13 14  1  0  0  0  0
 14 15  1  0  0  0  0
  9 15  1  0  0  0  0
  6 16  4  0  0  0  0
 16 17  1  0  0  0  0
 16 18  4  0  0  0  0
 18 19  4  0  0  0  0
  4 19  4  0  0  0  0
 19 20  1  0  0  0  0
 20 21  2  0  0  0  0
 20 22  1  0  0  0  0
 22 23  1  0  0  0  0
 23 24  4  0  0  0  0
 24 25  1  0  0  0  0
 24 26  4  0  0  0  0
 26 27  4  0  0  0  0
 27 28  4  0  0  0  0
 28 29  4  0  0  0  0
 23 29  4  0  0  0  0
 29 30  1  0  0  0  0
  2 31  1  0  0  0  0
 31 32  1  0  0  0  0
 31 33  1  0  0  0  0
 31 34  1  0  0  0  0
M  END
> <IC50(uM)>
0.1

> <Outcome>
1.0

> <BindingDB ID>
1020649

> <BindingDB MonomerID>
490578

> <BindingDB Ligand Name>
N-(2,6-difluorophenyl)-5-fluoro-4-(3-oxo-5,6-dihydro[1,3]thiazolo[2,3-c][1,2,4]triazol-2(3H)-yl)-2-{[(2S)-1,1,1-trifluoropropan-2-yl]oxy}benzamide::US10968216, Example 246

> <Curation/DataSource>
US Patent

> <Article DOI>
?

> <PMID>
?

> <Patent Number>
US10968216

> <Authors>
Gradl, SN; Nguyen, D; Eis, K; Gunther, J; Stellfeld, T; Janzer, A; Christian, S; Mueller, T; Sheikh, SE; Zhou, HJ; Zhao, C; Sykes, DB; Ferrara, SJ; Liu, K; Herbert, SA; Merz, C; Niehues, M; Nising, CF; Schafer, M; Zimmermann, K; Knablein, J; Thede, K; Faupel, T

> <Link to Ligand in BindingDB>
http://www.bindingdb.org/bind/chemsearch/marvin/MolStructure.jsp?monomerid=490578

> <Link to Ligand-Target Pair in BindingDB>
http://www.bindingdb.org/jsp/dbsearch/PrimarySearch_ki.jsp?energyterm=kJ/mole&tag=r21&monomerid=490578&enzyme=Dihydroorotate+dehydrogenase&column=ki&startPg=0&Increment=50&submit=Search

> <PubChem CID>
134474499

> <PubChem SID>
447117304

$$$$

  Mrv2115 07222212352D          

 29 32  0  0  0  0            999 V2000
    1.8500    2.0625    0.0000 O   0  0  0  0  0  0  0  0  0  0  0  0
    2.5645    2.4750    0.0000 C   0  0  0  0  0  0  0  0  0  0  0  0
    3.2789    2.0625    0.0000 N   0  0  0  0  0  0  0  0  0  0  0  0
    3.2789    1.2375    0.0000 C   0  0  0  0  0  0  0  0  0  0  0  0
    3.9934    0.8250    0.0000 C   0  0  0  0  0  0  0  0  0  0  0  0
    3.9934    0.0000    0.0000 C   0  0  0  0  0  0  0  0  0  0  0  0
    3.2789   -0.4125    0.0000 C   0  0  0  0  0  0  0  0  0  0  0  0
    2.5645    0.0000    0.0000 C   0  0  0  0  0  0  0  0  0  0  0  0
    2.5645    0.8250    0.0000 C   0  0  0  0  0  0  0  0  0  0  0  0
    1.7798    1.0799    0.0000 C   0  0  0  0  0  0  0  0  0  0  0  0
    1.2949    0.4125    0.0000 N   0  0  0  0  0  0  0  0  0  0  0  0
    1.7798   -0.2549    0.0000 N   0  0  0  0  0  0  0  0  0  0  0  0
    1.5249   -1.0396    0.0000 C   0  0  0  0  0  0  0  0  0  0  0  0
    2.0769   -1.6527    0.0000 C   0  0  0  0  0  0  0  0  0  0  0  0
    1.8220   -2.4373    0.0000 C   0  0  0  0  0  0  0  0  0  0  0  0
    1.0150   -2.6088    0.0000 C   0  0  0  0  0  0  0  0  0  0  0  0
    0.4630   -1.9957    0.0000 C   0  0  0  0  0  0  0  0  0  0  0  0
    0.7179   -1.2111    0.0000 C   0  0  0  0  0  0  0  0  0  0  0  0
    0.1659   -0.5980    0.0000 F   0  0  0  0  0  0  0  0  0  0  0  0
    2.5645    3.3000    0.0000 C   0  0  0  0  0  0  0  0  0  0  0  0
    1.8500    3.7125    0.0000 C   0  0  0  0  0  0  0  0  0  0  0  0
    1.8500    4.5375    0.0000 C   0  0  0  0  0  0  0  0  0  0  0  0
    1.1355    4.9500    0.0000 C   0  0  0  0  0  0  0  0  0  0  0  0
    0.4210    5.3625    0.0000 F   0  0  0  0  0  0  0  0  0  0  0  0
    1.5480    5.6645    0.0000 F   0  0  0  0  0  0  0  0  0  0  0  0
    0.7230    4.2355    0.0000 F   0  0  0  0  0  0  0  0  0  0  0  0
    2.5645    4.9500    0.0000 C   0  0  0  0  0  0  0  0  0  0  0  0
    3.2789    4.5375    0.0000 C   0  0  0  0  0  0  0  0  0  0  0  0
    3.2789    3.7125    0.0000 N   0  0  0  0  0  0  0  0  0  0  0  0
  1  2  2  0  0  0  0
  2  3  1  0  0  0  0
  3  4  1  0  0  0  0
  4  5  1  0  0  0  0
  5  6  1  0  0  0  0
  6  7  1  0  0  0  0
  7  8  1  0  0  0  0
  8  9  4  0  0  0  0
  4  9  1  0  0  0  0
  9 10  4  0  0  0  0
 10 11  4  0  0  0  0
 11 12  4  0  0  0  0
  8 12  4  0  0  0  0
 12 13  1  0  0  0  0
 13 14  4  0  0  0  0
 14 15  4  0  0  0  0
 15 16  4  0  0  0  0
 16 17  4  0  0  0  0
 17 18  4  0  0  0  0
 13 18  4  0  0  0  0
 18 19  1  0  0  0  0
  2 20  1  0  0  0  0
 20 21  4  0  0  0  0
 21 22  4  0  0  0  0
 22 23  1  0  0  0  0
 23 24  1  0  0  0  0
 23 25  1  0  0  0  0
 23 26  1  0  0  0  0
 22 27  4  0  0  0  0
 27 28  4  0  0  0  0
 28 29  4  0  0  0  0
 20 29  4  0  0  0  0
M  END
> <IC50(uM)>
0.02

> <Outcome>
1.0

> <BindingDB ID>
51334944; 993107

> <BindingDB MonomerID>
477609

> <BindingDB Ligand Name>
N-[(4R)-1-(2-fluorophenyl)-4,5,6,7-tetrahydro-1H-indazol-4-yl]-4-(trifluoromethyl)pyridine-2-carboxamide::US10889564, Example 39

> <Curation/DataSource>
ChEMBL; US Patent

> <Article DOI>
10.1021/acs.jmedchem.9b01658; ?

> <PMID>
32212728; ?

> <Patent Number>
?; US10889564

> <Authors>
Popova, G; Ladds, MJGW; Johansson, L; Saleh, A; Larsson, J; Sandberg, L; Sahlberg, SH; Qian, W; Gullberg, H; Garg, N; Gustavsson, AL; Haraldsson, M; Lane, D; Yngve, U; Lain, S; Lain, S; Drummond, C; Leeuwen, IV; Haraldsson, M; Johansson, L; Sandberg, L; Yngve, U

> <Link to Ligand in BindingDB>
http://www.bindingdb.org/bind/chemsearch/marvin/MolStructure.jsp?monomerid=477609

> <Link to Ligand-Target Pair in BindingDB>
http://www.bindingdb.org/jsp/dbsearch/PrimarySearch_ki.jsp?energyterm=kJ/mole&tag=r21&monomerid=477609&enzyme=Dihydroorotate+dehydrogenase&column=ki&startPg=0&Increment=50&submit=Search

> <PubChem CID>
129104758

> <PubChem SID>
442137226

$$$$

  Mrv2115 07222212352D          

 21 22  0  0  0  0            999 V2000
    2.7512   -0.0616    0.0000 C   0  0  0  0  0  0  0  0  0  0  0  0
    2.0367   -0.4741    0.0000 C   0  0  0  0  0  0  0  0  0  0  0  0
    1.3222   -0.0616    0.0000 C   0  0  0  0  0  0  0  0  0  0  0  0
    2.0367   -1.2991    0.0000 C   0  0  0  0  0  0  0  0  0  0  0  0
    2.7041   -1.7840    0.0000 N   0  0  0  0  0  0  0  0  0  0  0  0
    2.4492   -2.5687    0.0000 N   0  0  0  0  0  0  0  0  0  0  0  0
    1.6242   -2.5687    0.0000 C   0  0  0  0  0  0  0  0  0  0  0  0
    1.1393   -3.2361    0.0000 N   0  0  0  0  0  0  0  0  0  0  0  0
    0.3188   -3.1499    0.0000 C   0  0  0  0  0  0  0  0  0  0  0  0
   -0.1661   -3.8173    0.0000 C   0  0  0  0  0  0  0  0  0  0  0  0
   -0.9866   -3.7311    0.0000 C   0  0  0  0  0  0  0  0  0  0  0  0
   -1.3222   -2.9774    0.0000 C   0  0  0  0  0  0  0  0  0  0  0  0
   -2.1426   -2.8911    0.0000 C   0  0  0  0  0  0  0  0  0  0  0  0
   -2.9631   -2.8049    0.0000 F   0  0  0  0  0  0  0  0  0  0  0  0
   -2.0564   -2.0707    0.0000 F   0  0  0  0  0  0  0  0  0  0  0  0
   -2.2289   -3.7116    0.0000 F   0  0  0  0  0  0  0  0  0  0  0  0
   -0.8372   -2.3099    0.0000 C   0  0  0  0  0  0  0  0  0  0  0  0
   -0.0168   -2.3962    0.0000 C   0  0  0  0  0  0  0  0  0  0  0  0
    1.3693   -1.7840    0.0000 C   0  0  0  0  0  0  0  0  0  0  0  0
    0.5846   -1.5291    0.0000 C   0  0  0  0  0  0  0  0  0  0  0  0
   -0.2000   -1.2742    0.0000 N   0  0  0  0  0  0  0  0  0  0  0  0
  1  2  1  0  0  0  0
  2  3  1  0  0  0  0
  2  4  1  0  0  0  0
  4  5  4  0  0  0  0
  5  6  4  0  0  0  0
  6  7  4  0  0  0  0
  7  8  1  0  0  0  0
  8  9  1  0  0  0  0
  9 10  4  0  0  0  0
 10 11  4  0  0  0  0
 11 12  4  0  0  0  0
 12 13  1  0  0  0  0
 13 14  1  0  0  0  0
 13 15  1  0  0  0  0
 13 16  1  0  0  0  0
 12 17  4  0  0  0  0
 17 18  4  0  0  0  0
  9 18  4  0  0  0  0
  7 19  4  0  0  0  0
  4 19  4  0  0  0  0
 19 20  1  0  0  0  0
 20 21  3  0  0  0  0
M  STY  1   1 DAT
M  SAL   1  1   6
M  SDT   1 MRV_IMPLICIT_H                                        
M  SDD   1     0.5304   -0.4125    DR    ALL  0       0  
M  SED   1 IMPL_H1
M  END
> <IC50(uM)>
4.0

> <Outcome>
0.0

> <BindingDB ID>
50786780

> <BindingDB MonomerID>
50066576

> <BindingDB Ligand Name>
5-Isopropyl-3-(4-trifluoromethyl-phenylamino)-1H-pyrazole-4-carbonitrile::CHEMBL118468

> <Curation/DataSource>
ChEMBL

> <Article DOI>
10.1021/jm981028c

> <PMID>
9719606

> <Patent Number>
?

> <Authors>
Papageorgiou, C; Albert, R; Floersheim, P; Lemaire, M; Bitch, F; Weber, HP; Andersen, E; Hungerford, V; Schreier, MH

> <Link to Ligand in BindingDB>
http://www.bindingdb.org/bind/chemsearch/marvin/MolStructure.jsp?monomerid=50066576

> <Link to Ligand-Target Pair in BindingDB>
http://www.bindingdb.org/jsp/dbsearch/PrimarySearch_ki.jsp?energyterm=kJ/mole&tag=r21&monomerid=50066576&enzyme=Dihydroorotate+dehydrogenase&column=ki&startPg=0&Increment=50&submit=Search

> <PubChem CID>
10565707

> <PubChem SID>
103961196

$$$$

  Mrv2115 07222212352D          

 27 29  0  0  0  0            999 V2000
   -2.8579    9.6536    0.0000 C   0  0  0  0  0  0  0  0  0  0  0  0
   -2.1434    9.2411    0.0000 O   0  0  0  0  0  0  0  0  0  0  0  0
   -1.4289    9.6536    0.0000 C   0  0  0  0  0  0  0  0  0  0  0  0
   -1.4289   10.4786    0.0000 C   0  0  0  0  0  0  0  0  0  0  0  0
   -0.7145   10.8911    0.0000 C   0  0  0  0  0  0  0  0  0  0  0  0
   -0.0000   10.4786    0.0000 C   0  0  0  0  0  0  0  0  0  0  0  0
   -0.0000    9.6536    0.0000 C   0  0  0  0  0  0  0  0  0  0  0  0
   -0.7145    9.2411    0.0000 C   0  0  0  0  0  0  0  0  0  0  0  0
   -0.7145    8.4161    0.0000 C   0  0  0  0  0  0  0  0  0  0  0  0
   -0.0000    8.0036    0.0000 C   0  0  0  0  0  0  0  0  0  0  0  0
   -0.0000    7.1786    0.0000 C   0  0  0  0  0  0  0  0  0  0  0  0
    0.7145    6.7661    0.0000 F   0  0  0  0  0  0  0  0  0  0  0  0
   -0.7145    6.7661    0.0000 C   0  0  0  0  0  0  0  0  0  0  0  0
   -0.7145    5.9411    0.0000 N   0  0  0  0  0  0  0  0  0  0  0  0
   -0.0000    5.5286    0.0000 C   0  0  0  0  0  0  0  0  0  0  0  0
    0.7145    5.9411    0.0000 O   0  0  0  0  0  0  0  0  0  0  0  0
   -0.0000    4.7036    0.0000 C   0  0  0  0  0  0  0  0  0  0  0  0
    0.6674    4.2187    0.0000 C   0  0  0  0  0  0  0  0  0  0  0  0
    1.4521    4.4736    0.0000 C   0  0  0  0  0  0  0  0  0  0  0  0
    1.6236    5.2806    0.0000 O   0  0  0  0  0  0  0  0  0  0  0  0
    2.0652    3.9216    0.0000 O   0  0  0  0  0  0  0  0  0  0  0  0
    0.4125    3.4340    0.0000 C   0  0  0  0  0  0  0  0  0  0  0  0
   -0.4125    3.4340    0.0000 C   0  0  0  0  0  0  0  0  0  0  0  0
   -0.6674    4.2187    0.0000 C   0  0  0  0  0  0  0  0  0  0  0  0
   -1.4289    7.1786    0.0000 C   0  0  0  0  0  0  0  0  0  0  0  0
   -2.1434    6.7661    0.0000 F   0  0  0  0  0  0  0  0  0  0  0  0
   -1.4289    8.0036    0.0000 C   0  0  0  0  0  0  0  0  0  0  0  0
  1  2  1  0  0  0  0
  2  3  1  0  0  0  0
  3  4  4  0  0  0  0
  4  5  4  0  0  0  0
  5  6  4  0  0  0  0
  6  7  4  0  0  0  0
  7  8  4  0  0  0  0
  3  8  4  0  0  0  0
  8  9  1  0  0  0  0
  9 10  4  0  0  0  0
 10 11  4  0  0  0  0
 11 12  1  0  0  0  0
 11 13  4  0  0  0  0
 13 14  1  0  0  0  0
 14 15  1  0  0  0  0
 15 16  2  0  0  0  0
 15 17  1  0  0  0  0
 17 18  2  0  0  0  0
 18 19  1  0  0  0  0
 19 20  2  0  0  0  0
 19 21  1  0  0  0  0
 18 22  1  0  0  0  0
 22 23  1  0  0  0  0
 23 24  1  0  0  0  0
 17 24  1  0  0  0  0
 13 25  4  0  0  0  0
 25 26  1  0  0  0  0
 25 27  4  0  0  0  0
  9 27  4  0  0  0  0
M  END
> <IC50(uM)>
0.042

> <Outcome>
1.0

> <BindingDB ID>
50251717

> <BindingDB MonomerID>
50137300

> <BindingDB Ligand Name>
2-(3,5-Difluoro-2'-methoxy-biphenyl-4-ylcarbamoyl)-cyclopent-1-enecarboxylic acid::CHEMBL154121

> <Curation/DataSource>
ChEMBL

> <Article DOI>
10.1016/j.bmcl.2003.10.021

> <PMID>
14684297

> <Patent Number>
?

> <Authors>
Leban, J; Saeb, W; Garcia, G; Baumgartner, R; Kramer, B

> <Link to Ligand in BindingDB>
http://www.bindingdb.org/bind/chemsearch/marvin/MolStructure.jsp?monomerid=50137300

> <Link to Ligand-Target Pair in BindingDB>
http://www.bindingdb.org/jsp/dbsearch/PrimarySearch_ki.jsp?energyterm=kJ/mole&tag=r21&monomerid=50137300&enzyme=Dihydroorotate+dehydrogenase&column=ki&startPg=0&Increment=50&submit=Search

> <PubChem CID>
21084669

> <PubChem SID>
104027466

$$$$

  Mrv2115 07222212352D          

 36 39  0  0  0  0            999 V2000
   -3.1034    2.1599    0.0000 C   0  0  0  0  0  0  0  0  0  0  0  0
   -2.6909    1.4455    0.0000 C   0  0  0  0  0  0  0  0  0  0  0  0
   -3.1034    0.7310    0.0000 O   0  0  0  0  0  0  0  0  0  0  0  0
   -2.6909    0.0165    0.0000 C   0  0  0  0  0  0  0  0  0  0  0  0
   -1.8659    0.0165    0.0000 C   0  0  0  0  0  0  0  0  0  0  0  0
   -1.4534   -0.6979    0.0000 C   0  0  0  0  0  0  0  0  0  0  0  0
   -0.6284   -0.6979    0.0000 N   0  0  0  0  0  0  0  0  0  0  0  0
   -0.1435   -1.3654    0.0000 N   0  0  0  0  0  0  0  0  0  0  0  0
    0.6411   -1.1104    0.0000 C   0  0  0  0  0  0  0  0  0  0  0  0
    0.6411   -0.2854    0.0000 N   0  0  0  0  0  0  0  0  0  0  0  0
   -0.1435   -0.0305    0.0000 C   0  0  0  0  0  0  0  0  0  0  0  0
   -0.3984    0.7541    0.0000 O   0  0  0  0  0  0  0  0  0  0  0  0
    1.3556    0.1271    0.0000 C   0  0  0  0  0  0  0  0  0  0  0  0
    2.0701   -0.2854    0.0000 C   0  0  0  0  0  0  0  0  0  0  0  0
    2.0701   -1.1104    0.0000 O   0  0  0  0  0  0  0  0  0  0  0  0
    1.3556   -1.5229    0.0000 C   0  0  0  0  0  0  0  0  0  0  0  0
   -1.8659   -1.4124    0.0000 C   0  0  0  0  0  0  0  0  0  0  0  0
   -1.4534   -2.1269    0.0000 F   0  0  0  0  0  0  0  0  0  0  0  0
   -2.6909   -1.4124    0.0000 C   0  0  0  0  0  0  0  0  0  0  0  0
   -3.1034   -0.6979    0.0000 C   0  0  0  0  0  0  0  0  0  0  0  0
   -3.9284   -0.6979    0.0000 C   0  0  0  0  0  0  0  0  0  0  0  0
   -4.3409    0.0165    0.0000 O   0  0  0  0  0  0  0  0  0  0  0  0
   -4.3409   -1.4124    0.0000 N   0  0  0  0  0  0  0  0  0  0  0  0
   -5.1659   -1.4124    0.0000 C   0  0  0  0  0  0  0  0  0  0  0  0
   -5.5784   -2.1269    0.0000 C   0  0  0  0  0  0  0  0  0  0  0  0
   -5.1659   -2.8414    0.0000 F   0  0  0  0  0  0  0  0  0  0  0  0
   -6.4034   -2.1269    0.0000 C   0  0  0  0  0  0  0  0  0  0  0  0
   -6.8159   -1.4124    0.0000 C   0  0  0  0  0  0  0  0  0  0  0  0
   -6.4034   -0.6979    0.0000 C   0  0  0  0  0  0  0  0  0  0  0  0
   -6.8159    0.0165    0.0000 F   0  0  0  0  0  0  0  0  0  0  0  0
   -5.5784   -0.6979    0.0000 C   0  0  0  0  0  0  0  0  0  0  0  0
   -5.1659    0.0165    0.0000 Cl  0  0  0  0  0  0  0  0  0  0  0  0
   -1.8659    1.4455    0.0000 C   0  0  0  0  0  0  0  0  0  0  0  0
   -1.8659    0.6205    0.0000 F   0  0  0  0  0  0  0  0  0  0  0  0
   -1.8659    2.2705    0.0000 F   0  0  0  0  0  0  0  0  0  0  0  0
   -1.0409    1.4455    0.0000 F   0  0  0  0  0  0  0  0  0  0  0  0
  1  2  1  0  0  0  0
  2  3  1  0  0  0  0
  3  4  1  0  0  0  0
  4  5  4  0  0  0  0
  5  6  4  0  0  0  0
  6  7  1  0  0  0  0
  7  8  4  0  0  0  0
  8  9  4  0  0  0  0
  9 10  4  0  0  0  0
 10 11  4  0  0  0  0
  7 11  4  0  0  0  0
 11 12  2  0  0  0  0
 10 13  1  0  0  0  0
 13 14  1  0  0  0  0
 14 15  1  0  0  0  0
 15 16  1  0  0  0  0
  9 16  1  0  0  0  0
  6 17  4  0  0  0  0
 17 18  1  0  0  0  0
 17 19  4  0  0  0  0
 19 20  4  0  0  0  0
  4 20  4  0  0  0  0
 20 21  1  0  0  0  0
 21 22  2  0  0  0  0
 21 23  1  0  0  0  0
 23 24  1  0  0  0  0
 24 25  4  0  0  0  0
 25 26  1  0  0  0  0
 25 27  4  0  0  0  0
 27 28  4  0  0  0  0
 28 29  4  0  0  0  0
 29 30  1  0  0  0  0
 29 31  4  0  0  0  0
 24 31  4  0  0  0  0
 31 32  1  0  0  0  0
  2 33  1  0  0  0  0
 33 34  1  0  0  0  0
 33 35  1  0  0  0  0
 33 36  1  0  0  0  0
M  END
> <IC50(uM)>
0.032

> <Outcome>
1.0

> <BindingDB ID>
1020587

> <BindingDB MonomerID>
490526

> <BindingDB Ligand Name>
N-(2-chloro-3,6-difluorophenyl)-5-fluoro-4-(3-oxo-5,6-dihydro-3H-[1,2,4]triazolo[3,4-c]-[1,4]oxazin-2(8H)-yl)-2-{[(2S)-1,1,1-trifluoropropan-2-yl]oxy}benzamide::US10968216, Example 194

> <Curation/DataSource>
US Patent

> <Article DOI>
?

> <PMID>
?

> <Patent Number>
US10968216

> <Authors>
Gradl, SN; Nguyen, D; Eis, K; Gunther, J; Stellfeld, T; Janzer, A; Christian, S; Mueller, T; Sheikh, SE; Zhou, HJ; Zhao, C; Sykes, DB; Ferrara, SJ; Liu, K; Herbert, SA; Merz, C; Niehues, M; Nising, CF; Schafer, M; Zimmermann, K; Knablein, J; Thede, K; Faupel, T

> <Link to Ligand in BindingDB>
http://www.bindingdb.org/bind/chemsearch/marvin/MolStructure.jsp?monomerid=490526

> <Link to Ligand-Target Pair in BindingDB>
http://www.bindingdb.org/jsp/dbsearch/PrimarySearch_ki.jsp?energyterm=kJ/mole&tag=r21&monomerid=490526&enzyme=Dihydroorotate+dehydrogenase&column=ki&startPg=0&Increment=50&submit=Search

> <PubChem CID>
134474052

> <PubChem SID>
447117252

$$$$

  Mrv2115 07222212352D          

 36 39  0  0  0  0            999 V2000
   -3.1034    2.1599    0.0000 C   0  0  0  0  0  0  0  0  0  0  0  0
   -2.6909    1.4455    0.0000 C   0  0  0  0  0  0  0  0  0  0  0  0
   -3.1034    0.7310    0.0000 O   0  0  0  0  0  0  0  0  0  0  0  0
   -2.6909    0.0165    0.0000 C   0  0  0  0  0  0  0  0  0  0  0  0
   -1.8659    0.0165    0.0000 C   0  0  0  0  0  0  0  0  0  0  0  0
   -1.4534   -0.6979    0.0000 C   0  0  0  0  0  0  0  0  0  0  0  0
   -0.6284   -0.6979    0.0000 N   0  0  0  0  0  0  0  0  0  0  0  0
   -0.1435   -1.3654    0.0000 N   0  0  0  0  0  0  0  0  0  0  0  0
    0.6411   -1.1104    0.0000 C   0  0  0  0  0  0  0  0  0  0  0  0
    0.6411   -0.2854    0.0000 N   0  0  0  0  0  0  0  0  0  0  0  0
   -0.1435   -0.0305    0.0000 C   0  0  0  0  0  0  0  0  0  0  0  0
   -0.3984    0.7541    0.0000 O   0  0  0  0  0  0  0  0  0  0  0  0
    1.3556    0.1271    0.0000 C   0  0  0  0  0  0  0  0  0  0  0  0
    2.0701   -0.2854    0.0000 C   0  0  0  0  0  0  0  0  0  0  0  0
    2.0701   -1.1104    0.0000 C   0  0  0  0  0  0  0  0  0  0  0  0
    1.3556   -1.5229    0.0000 N   0  0  0  0  0  0  0  0  0  0  0  0
    1.3556   -2.3479    0.0000 C   0  0  0  0  0  0  0  0  0  0  0  0
   -1.8659   -1.4124    0.0000 C   0  0  0  0  0  0  0  0  0  0  0  0
   -1.4534   -2.1269    0.0000 F   0  0  0  0  0  0  0  0  0  0  0  0
   -2.6909   -1.4124    0.0000 C   0  0  0  0  0  0  0  0  0  0  0  0
   -3.1034   -0.6979    0.0000 C   0  0  0  0  0  0  0  0  0  0  0  0
   -3.9284   -0.6979    0.0000 C   0  0  0  0  0  0  0  0  0  0  0  0
   -4.3409    0.0165    0.0000 O   0  0  0  0  0  0  0  0  0  0  0  0
   -4.3409   -1.4124    0.0000 N   0  0  0  0  0  0  0  0  0  0  0  0
   -5.1659   -1.4124    0.0000 C   0  0  0  0  0  0  0  0  0  0  0  0
   -5.5784   -2.1269    0.0000 C   0  0  0  0  0  0  0  0  0  0  0  0
   -5.1659   -2.8414    0.0000 F   0  0  0  0  0  0  0  0  0  0  0  0
   -6.4034   -2.1269    0.0000 C   0  0  0  0  0  0  0  0  0  0  0  0
   -6.8159   -1.4124    0.0000 C   0  0  0  0  0  0  0  0  0  0  0  0
   -6.4034   -0.6979    0.0000 C   0  0  0  0  0  0  0  0  0  0  0  0
   -5.5784   -0.6979    0.0000 C   0  0  0  0  0  0  0  0  0  0  0  0
   -5.1659    0.0165    0.0000 F   0  0  0  0  0  0  0  0  0  0  0  0
   -1.8659    1.4455    0.0000 C   0  0  0  0  0  0  0  0  0  0  0  0
   -1.8659    0.6205    0.0000 F   0  0  0  0  0  0  0  0  0  0  0  0
   -1.8659    2.2705    0.0000 F   0  0  0  0  0  0  0  0  0  0  0  0
   -1.0409    1.4455    0.0000 F   0  0  0  0  0  0  0  0  0  0  0  0
  1  2  1  0  0  0  0
  2  3  1  0  0  0  0
  3  4  1  0  0  0  0
  4  5  4  0  0  0  0
  5  6  4  0  0  0  0
  6  7  1  0  0  0  0
  7  8  4  0  0  0  0
  8  9  4  0  0  0  0
  9 10  4  0  0  0  0
 10 11  4  0  0  0  0
  7 11  4  0  0  0  0
 11 12  2  0  0  0  0
 10 13  1  0  0  0  0
 13 14  1  0  0  0  0
 14 15  1  0  0  0  0
 15 16  1  0  0  0  0
  9 16  1  0  0  0  0
 16 17  1  0  0  0  0
  6 18  4  0  0  0  0
 18 19  1  0  0  0  0
 18 20  4  0  0  0  0
 20 21  4  0  0  0  0
  4 21  4  0  0  0  0
 21 22  1  0  0  0  0
 22 23  2  0  0  0  0
 22 24  1  0  0  0  0
 24 25  1  0  0  0  0
 25 26  4  0  0  0  0
 26 27  1  0  0  0  0
 26 28  4  0  0  0  0
 28 29  4  0  0  0  0
 29 30  4  0  0  0  0
 30 31  4  0  0  0  0
 25 31  4  0  0  0  0
 31 32  1  0  0  0  0
  2 33  1  0  0  0  0
 33 34  1  0  0  0  0
 33 35  1  0  0  0  0
 33 36  1  0  0  0  0
M  END
> <IC50(uM)>
0.058

> <Outcome>
1.0

> <BindingDB ID>
1020648

> <BindingDB MonomerID>
490577

> <BindingDB Ligand Name>
N-(2,6-difluorophenyl)-5-fluoro-4-(8-methyl-3-oxo-5,6,7,8-tetrahydro[1,2,4]triazolo[4,3-a]-pyrimidin-2(3H)-yl)-2-{[(2S)-1,1,1-trifluoropropan-2-yl]oxy}benzamide::US10968216, Example 245

> <Curation/DataSource>
US Patent

> <Article DOI>
?

> <PMID>
?

> <Patent Number>
US10968216

> <Authors>
Gradl, SN; Nguyen, D; Eis, K; Gunther, J; Stellfeld, T; Janzer, A; Christian, S; Mueller, T; Sheikh, SE; Zhou, HJ; Zhao, C; Sykes, DB; Ferrara, SJ; Liu, K; Herbert, SA; Merz, C; Niehues, M; Nising, CF; Schafer, M; Zimmermann, K; Knablein, J; Thede, K; Faupel, T

> <Link to Ligand in BindingDB>
http://www.bindingdb.org/bind/chemsearch/marvin/MolStructure.jsp?monomerid=490577

> <Link to Ligand-Target Pair in BindingDB>
http://www.bindingdb.org/jsp/dbsearch/PrimarySearch_ki.jsp?energyterm=kJ/mole&tag=r21&monomerid=490577&enzyme=Dihydroorotate+dehydrogenase&column=ki&startPg=0&Increment=50&submit=Search

> <PubChem CID>
134474084

> <PubChem SID>
447117303

$$$$

  Mrv2115 07222212352D          

 25 27  0  0  0  0            999 V2000
    0.8848   -2.9638    0.0000 C   0  0  0  0  0  0  0  0  0  0  0  0
    1.6694   -2.7089    0.0000 O   0  0  0  0  0  0  0  0  0  0  0  0
    1.8409   -1.9019    0.0000 C   0  0  0  0  0  0  0  0  0  0  0  0
    2.6256   -1.6470    0.0000 C   0  0  0  0  0  0  0  0  0  0  0  0
    2.8805   -0.8624    0.0000 C   0  0  0  0  0  0  0  0  0  0  0  0
    2.3956   -0.1949    0.0000 C   0  0  0  0  0  0  0  0  0  0  0  0
    2.7311    0.5587    0.0000 C   0  0  0  0  0  0  0  0  0  0  0  0
    2.2462    1.2262    0.0000 C   0  0  0  0  0  0  0  0  0  0  0  0
    2.5818    1.9799    0.0000 C   0  0  0  0  0  0  0  0  0  0  0  0
    3.4023    2.0661    0.0000 C   0  0  0  0  0  0  0  0  0  0  0  0
    3.7378    2.8198    0.0000 C   0  0  0  0  0  0  0  0  0  0  0  0
    4.0734    3.5734    0.0000 F   0  0  0  0  0  0  0  0  0  0  0  0
    2.9841    3.1553    0.0000 F   0  0  0  0  0  0  0  0  0  0  0  0
    4.4915    2.4842    0.0000 F   0  0  0  0  0  0  0  0  0  0  0  0
    3.8872    1.3987    0.0000 N   0  0  0  0  0  0  0  0  0  0  0  0
    3.5516    0.6450    0.0000 C   0  0  0  0  0  0  0  0  0  0  0  0
    3.7055   -0.8624    0.0000 C   0  0  0  0  0  0  0  0  0  0  0  0
    3.9604   -1.6470    0.0000 N   0  0  0  0  0  0  0  0  0  0  0  0
    3.2930   -2.1319    0.0000 C   0  0  0  0  0  0  0  0  0  0  0  0
    3.2930   -2.9569    0.0000 C   0  0  0  0  0  0  0  0  0  0  0  0
    2.5785   -3.3694    0.0000 O   0  0  0  0  0  0  0  0  0  0  0  0
    4.0075   -3.3694    0.0000 N   0  0  0  0  0  0  0  0  0  0  0  0
    4.0075   -4.1944    0.0000 C   0  0  0  0  0  0  0  0  0  0  0  0
    4.4200   -4.9089    0.0000 C   0  0  0  0  0  0  0  0  0  0  0  0
    3.5950   -4.9089    0.0000 C   0  0  0  0  0  0  0  0  0  0  0  0
  1  2  1  0  0  0  0
  2  3  1  0  0  0  0
  3  4  1  0  0  0  0
  4  5  4  0  0  0  0
  5  6  1  0  0  0  0
  6  7  1  0  0  0  0
  7  8  4  0  0  0  0
  8  9  4  0  0  0  0
  9 10  4  0  0  0  0
 10 11  1  0  0  0  0
 11 12  1  0  0  0  0
 11 13  1  0  0  0  0
 11 14  1  0  0  0  0
 10 15  4  0  0  0  0
 15 16  4  0  0  0  0
  7 16  4  0  0  0  0
  5 17  4  0  0  0  0
 17 18  4  0  0  0  0
 18 19  4  0  0  0  0
  4 19  4  0  0  0  0
 19 20  1  0  0  0  0
 20 21  2  0  0  0  0
 20 22  1  0  0  0  0
 22 23  1  0  0  0  0
 23 24  1  0  0  0  0
 24 25  1  0  0  0  0
 23 25  1  0  0  0  0
M  STY  1   1 DAT
M  SAL   1  1  18
M  SDT   1 MRV_IMPLICIT_H                                        
M  SDD   1     0.5304   -0.4125    DR    ALL  0       0  
M  SED   1 IMPL_H1
M  END
> <IC50(uM)>
100.0

> <Outcome>
0.0

> <BindingDB ID>
51330106

> <BindingDB MonomerID>
50538354

> <BindingDB Ligand Name>
CHEMBL4646801

> <Curation/DataSource>
ChEMBL

> <Article DOI>
10.1021/acs.jmedchem.0c00311

> <PMID>
32248693

> <Patent Number>
?

> <Authors>
Kokkonda, S; Deng, X; White, KL; El Mazouni, F; White, J; Shackleford, DM; Katneni, K; Chiu, FCK; Barker, H; McLaren, J; Crighton, E; Chen, G; Angulo-Barturen, I; Jimenez-Diaz, MB; Ferrer, S; Huertas-Valentin, L; Martinez-Martinez, MS; Lafuente-Monasterio, MJ; Chittimalla, R; Shahi, SP; Wittlin, S; Waterson, D; Burrows, JN; Matthews, D; Tomchick, D; Rathod, PK; Palmer, MJ; Charman, SA; Phillips, MA

> <Link to Ligand in BindingDB>
http://www.bindingdb.org/bind/chemsearch/marvin/MolStructure.jsp?monomerid=50538354

> <Link to Ligand-Target Pair in BindingDB>
http://www.bindingdb.org/jsp/dbsearch/PrimarySearch_ki.jsp?energyterm=kJ/mole&tag=r21&monomerid=50538354&enzyme=Dihydroorotate+dehydrogenase&column=ki&startPg=0&Increment=50&submit=Search

> <PubChem CID>
156020098

> <PubChem SID>
442139917

$$$$

  Mrv2115 07222212352D          

 31 35  0  0  0  0            999 V2000
    7.5931   -5.4773    0.0000 C   0  0  0  0  0  0  0  0  0  0  0  0
    6.7861   -5.3057    0.0000 O   0  0  0  0  0  0  0  0  0  0  0  0
    6.5311   -4.5211    0.0000 C   0  0  0  0  0  0  0  0  0  0  0  0
    7.0832   -3.9080    0.0000 O   0  0  0  0  0  0  0  0  0  0  0  0
    5.7242   -4.3496    0.0000 C   0  0  0  0  0  0  0  0  0  0  0  0
    5.1721   -4.9627    0.0000 C   0  0  0  0  0  0  0  0  0  0  0  0
    4.3652   -4.7911    0.0000 C   0  0  0  0  0  0  0  0  0  0  0  0
    4.1102   -4.0065    0.0000 C   0  0  0  0  0  0  0  0  0  0  0  0
    4.6623   -3.3934    0.0000 C   0  0  0  0  0  0  0  0  0  0  0  0
    4.4073   -2.6088    0.0000 C   0  0  0  0  0  0  0  0  0  0  0  0
    3.6004   -2.4373    0.0000 C   0  0  0  0  0  0  0  0  0  0  0  0
    3.3454   -1.6527    0.0000 C   0  0  0  0  0  0  0  0  0  0  0  0
    3.8974   -1.0396    0.0000 C   0  0  0  0  0  0  0  0  0  0  0  0
    3.6425   -0.2549    0.0000 N   0  0  0  0  0  0  0  0  0  0  0  0
    4.1274    0.4125    0.0000 N   0  0  0  0  0  0  0  0  0  0  0  0
    3.6425    1.0799    0.0000 N   0  0  0  0  0  0  0  0  0  0  0  0
    2.8579    0.8250    0.0000 C   0  0  0  0  0  0  0  0  0  0  0  0
    2.8579    0.0000    0.0000 C   0  0  0  0  0  0  0  0  0  0  0  0
    2.1434   -0.4125    0.0000 C   0  0  0  0  0  0  0  0  0  0  0  0
    2.1434   -1.2375    0.0000 O   0  0  0  0  0  0  0  0  0  0  0  0
    1.4289   -0.0000    0.0000 C   0  0  0  0  0  0  0  0  0  0  0  0
    0.7145   -0.4125    0.0000 C   0  0  0  0  0  0  0  0  0  0  0  0
   -0.0000    0.0000    0.0000 C   0  0  0  0  0  0  0  0  0  0  0  0
    0.0000    0.8250    0.0000 C   0  0  0  0  0  0  0  0  0  0  0  0
    0.7145    1.2375    0.0000 C   0  0  0  0  0  0  0  0  0  0  0  0
    1.4289    0.8250    0.0000 C   0  0  0  0  0  0  0  0  0  0  0  0
    2.1434    1.2375    0.0000 C   0  0  0  0  0  0  0  0  0  0  0  0
    2.1434    2.0625    0.0000 O   0  0  0  0  0  0  0  0  0  0  0  0
    4.7044   -1.2111    0.0000 C   0  0  0  0  0  0  0  0  0  0  0  0
    4.9594   -1.9957    0.0000 C   0  0  0  0  0  0  0  0  0  0  0  0
    5.4692   -3.5650    0.0000 C   0  0  0  0  0  0  0  0  0  0  0  0
  1  2  1  0  0  0  0
  2  3  1  0  0  0  0
  3  4  2  0  0  0  0
  3  5  1  0  0  0  0
  5  6  4  0  0  0  0
  6  7  4  0  0  0  0
  7  8  4  0  0  0  0
  8  9  4  0  0  0  0
  9 10  1  0  0  0  0
 10 11  4  0  0  0  0
 11 12  4  0  0  0  0
 12 13  4  0  0  0  0
 13 14  1  0  0  0  0
 14 15  4  0  0  0  0
 15 16  4  0  0  0  0
 16 17  4  0  0  0  0
 17 18  4  0  0  0  0
 14 18  4  0  0  0  0
 18 19  1  0  0  0  0
 19 20  2  0  0  0  0
 19 21  1  0  0  0  0
 21 22  4  0  0  0  0
 22 23  4  0  0  0  0
 23 24  4  0  0  0  0
 24 25  4  0  0  0  0
 25 26  4  0  0  0  0
 21 26  4  0  0  0  0
 26 27  1  0  0  0  0
 17 27  1  0  0  0  0
 27 28  2  0  0  0  0
 13 29  4  0  0  0  0
 29 30  4  0  0  0  0
 10 30  4  0  0  0  0
  9 31  4  0  0  0  0
  5 31  4  0  0  0  0
M  END
> <IC50(uM)>
0.55

> <Outcome>
1.0

> <BindingDB ID>
51338190

> <BindingDB MonomerID>
50541664

> <BindingDB Ligand Name>
CHEMBL4643388

> <Curation/DataSource>
ChEMBL

> <Article DOI>
10.1021/acs.jmedchem.0c00512

> <PMID>
32496056

> <Patent Number>
?

> <Authors>
Zuo, Z; Liu, X; Qian, X; Zeng, T; Sang, N; Liu, H; Zhou, Y; Tao, L; Zhou, X; Su, N; Yu, Y; Chen, Q; Luo, Y; Zhao, Y

> <Link to Ligand in BindingDB>
http://www.bindingdb.org/bind/chemsearch/marvin/MolStructure.jsp?monomerid=50541664

> <Link to Ligand-Target Pair in BindingDB>
http://www.bindingdb.org/jsp/dbsearch/PrimarySearch_ki.jsp?energyterm=kJ/mole&tag=r21&monomerid=50541664&enzyme=Dihydroorotate+dehydrogenase&column=ki&startPg=0&Increment=50&submit=Search

> <PubChem CID>
156018410

> <PubChem SID>
442143227

$$$$

  Mrv2115 07222212352D          

 26 28  0  0  0  0            999 V2000
   -2.1434   -1.2375    0.0000 C   0  0  0  0  0  0  0  0  0  0  0  0
   -2.8579   -1.6500    0.0000 O   0  0  0  0  0  0  0  0  0  0  0  0
   -2.8579   -2.4750    0.0000 C   0  0  0  0  0  0  0  0  0  0  0  0
   -2.1434   -2.8875    0.0000 C   0  0  0  0  0  0  0  0  0  0  0  0
   -2.1434   -3.7125    0.0000 C   0  0  0  0  0  0  0  0  0  0  0  0
   -2.8579   -4.1250    0.0000 C   0  0  0  0  0  0  0  0  0  0  0  0
   -3.5724   -3.7125    0.0000 C   0  0  0  0  0  0  0  0  0  0  0  0
   -4.2868   -4.1250    0.0000 C   0  0  0  0  0  0  0  0  0  0  0  0
   -5.0013   -3.7125    0.0000 C   0  0  0  0  0  0  0  0  0  0  0  0
   -5.7158   -4.1250    0.0000 C   0  0  0  0  0  0  0  0  0  0  0  0
   -6.4302   -3.7125    0.0000 F   0  0  0  0  0  0  0  0  0  0  0  0
   -5.7158   -4.9500    0.0000 C   0  0  0  0  0  0  0  0  0  0  0  0
   -6.4302   -5.3625    0.0000 N   0  0  0  0  0  0  0  0  0  0  0  0
   -6.4302   -6.1875    0.0000 C   0  0  0  0  0  0  0  0  0  0  0  0
   -5.7158   -6.6000    0.0000 N   0  0  0  0  0  0  0  0  0  0  0  0
   -5.7158   -7.4250    0.0000 C   0  0  0  0  0  0  0  0  0  0  0  0
   -6.4302   -7.8375    0.0000 C   0  0  0  0  0  0  0  0  0  0  0  0
   -7.1447   -7.4250    0.0000 C   0  0  0  0  0  0  0  0  0  0  0  0
   -7.1447   -6.6000    0.0000 C   0  0  0  0  0  0  0  0  0  0  0  0
   -7.8592   -6.1875    0.0000 C   0  0  0  0  0  0  0  0  0  0  0  0
   -7.8592   -5.3625    0.0000 O   0  0  0  0  0  0  0  0  0  0  0  0
   -8.5737   -6.6000    0.0000 O   0  0  0  0  0  0  0  0  0  0  0  0
   -5.0013   -5.3625    0.0000 C   0  0  0  0  0  0  0  0  0  0  0  0
   -4.2868   -4.9500    0.0000 C   0  0  0  0  0  0  0  0  0  0  0  0
   -3.5724   -5.3625    0.0000 C   0  0  0  0  0  0  0  0  0  0  0  0
   -3.5724   -2.8875    0.0000 C   0  0  0  0  0  0  0  0  0  0  0  0
  1  2  1  0  0  0  0
  2  3  1  0  0  0  0
  3  4  4  0  0  0  0
  4  5  4  0  0  0  0
  5  6  4  0  0  0  0
  6  7  4  0  0  0  0
  7  8  1  0  0  0  0
  8  9  4  0  0  0  0
  9 10  4  0  0  0  0
 10 11  1  0  0  0  0
 10 12  4  0  0  0  0
 12 13  1  0  0  0  0
 13 14  1  0  0  0  0
 14 15  4  0  0  0  0
 15 16  4  0  0  0  0
 16 17  4  0  0  0  0
 17 18  4  0  0  0  0
 18 19  4  0  0  0  0
 14 19  4  0  0  0  0
 19 20  1  0  0  0  0
 20 21  2  0  0  0  0
 20 22  1  0  0  0  0
 12 23  4  0  0  0  0
 23 24  4  0  0  0  0
  8 24  4  0  0  0  0
 24 25  1  0  0  0  0
  7 26  4  0  0  0  0
  3 26  4  0  0  0  0
M  END
> <IC50(uM)>
0.099

> <Outcome>
1.0

> <BindingDB ID>
51186839; 246912

> <BindingDB MonomerID>
119819

> <BindingDB Ligand Name>
US8691852, 37

> <Curation/DataSource>
ChEMBL; US Patent

> <Article DOI>
10.1007/s00044-011-9837-4; ?

> <PMID>
?

> <Patent Number>
?; US8691852

> <Authors>
n/a; Castro Palomino Laria, JC; Erra Sola, M; Lozoya Toribio, ME; Navarro Romero, E

> <Link to Ligand in BindingDB>
http://www.bindingdb.org/bind/chemsearch/marvin/MolStructure.jsp?monomerid=119819

> <Link to Ligand-Target Pair in BindingDB>
http://www.bindingdb.org/jsp/dbsearch/PrimarySearch_ki.jsp?energyterm=kJ/mole&tag=r21&monomerid=119819&enzyme=Dihydroorotate+dehydrogenase&column=ki&startPg=0&Increment=50&submit=Search

> <PubChem CID>
24987911

> <PubChem SID>
220230613

$$$$

  Mrv2115 07222212352D          

 27 30  0  0  0  0            999 V2000
    2.1434   -2.8875    0.0000 O   0  0  0  0  0  0  0  0  0  0  0  0
    1.4289   -2.4750    0.0000 C   0  0  0  0  0  0  0  0  0  0  0  0
    0.7145   -2.8875    0.0000 O   0  0  0  0  0  0  0  0  0  0  0  0
    1.4289   -1.6500    0.0000 C   0  0  0  0  0  0  0  0  0  0  0  0
    0.7145   -1.2375    0.0000 C   0  0  0  0  0  0  0  0  0  0  0  0
    0.0000   -1.6500    0.0000 O   0  0  0  0  0  0  0  0  0  0  0  0
    0.7145   -0.4125    0.0000 C   0  0  0  0  0  0  0  0  0  0  0  0
    0.0000    0.0000    0.0000 C   0  0  0  0  0  0  0  0  0  0  0  0
   -0.7145   -0.4125    0.0000 C   0  0  0  0  0  0  0  0  0  0  0  0
   -1.4289    0.0000    0.0000 C   0  0  0  0  0  0  0  0  0  0  0  0
   -1.4289    0.8250    0.0000 C   0  0  0  0  0  0  0  0  0  0  0  0
   -2.1434    1.2375    0.0000 Cl  0  0  0  0  0  0  0  0  0  0  0  0
   -0.7145    1.2375    0.0000 C   0  0  0  0  0  0  0  0  0  0  0  0
    0.0000    0.8250    0.0000 C   0  0  0  0  0  0  0  0  0  0  0  0
    1.4289    0.0000    0.0000 N   0  0  0  0  0  0  0  0  0  0  0  0
    2.1434   -0.4125    0.0000 C   0  0  0  0  0  0  0  0  0  0  0  0
    2.8579    0.0000    0.0000 C   0  0  0  0  0  0  0  0  0  0  0  0
    2.8579    0.8250    0.0000 C   0  0  0  0  0  0  0  0  0  0  0  0
    2.1434    1.2375    0.0000 C   0  0  0  0  0  0  0  0  0  0  0  0
    2.1434    2.0625    0.0000 C   0  0  0  0  0  0  0  0  0  0  0  0
    2.8579    2.4750    0.0000 C   0  0  0  0  0  0  0  0  0  0  0  0
    3.5724    2.0625    0.0000 C   0  0  0  0  0  0  0  0  0  0  0  0
    3.5724    1.2375    0.0000 C   0  0  0  0  0  0  0  0  0  0  0  0
    3.5724   -0.4125    0.0000 C   0  0  0  0  0  0  0  0  0  0  0  0
    3.5724   -1.2375    0.0000 C   0  0  0  0  0  0  0  0  0  0  0  0
    2.8579   -1.6500    0.0000 C   0  0  0  0  0  0  0  0  0  0  0  0
    2.1434   -1.2375    0.0000 C   0  0  0  0  0  0  0  0  0  0  0  0
  1  2  2  0  0  0  0
  2  3  1  0  0  0  0
  2  4  1  0  0  0  0
  4  5  4  0  0  0  0
  5  6  1  0  0  0  0
  5  7  4  0  0  0  0
  7  8  1  0  0  0  0
  8  9  4  0  0  0  0
  9 10  4  0  0  0  0
 10 11  4  0  0  0  0
 11 12  1  0  0  0  0
 11 13  4  0  0  0  0
 13 14  4  0  0  0  0
  8 14  4  0  0  0  0
  7 15  4  0  0  0  0
 15 16  4  0  0  0  0
 16 17  4  0  0  0  0
 17 18  1  0  0  0  0
 18 19  4  0  0  0  0
 19 20  4  0  0  0  0
 20 21  4  0  0  0  0
 21 22  4  0  0  0  0
 22 23  4  0  0  0  0
 18 23  4  0  0  0  0
 17 24  4  0  0  0  0
 24 25  4  0  0  0  0
 25 26  4  0  0  0  0
 26 27  4  0  0  0  0
  4 27  4  0  0  0  0
 16 27  4  0  0  0  0
M  END
> <IC50(uM)>
26.0

> <Outcome>
0.0

> <BindingDB ID>
50841872

> <BindingDB MonomerID>
50201901

> <BindingDB Ligand Name>
2-(4-chlorophenyl)-3-hydroxy-8-phenylquinoline-4-carboxylicacid::CHEMBL218583

> <Curation/DataSource>
ChEMBL

> <Article DOI>
10.1021/jm0602256

> <PMID>
17201408

> <Patent Number>
?

> <Authors>
Kaila, N; Janz, K; DeBernardo, S; Bedard, PW; Camphausen, RT; Tam, S; Tsao, DH; Keith, JC; Nickerson-Nutter, C; Shilling, A; Young-Sciame, R; Wang, Q

> <Link to Ligand in BindingDB>
http://www.bindingdb.org/bind/chemsearch/marvin/MolStructure.jsp?monomerid=50201901

> <Link to Ligand-Target Pair in BindingDB>
http://www.bindingdb.org/jsp/dbsearch/PrimarySearch_ki.jsp?energyterm=kJ/mole&tag=r21&monomerid=50201901&enzyme=Dihydroorotate+dehydrogenase&column=ki&startPg=0&Increment=50&submit=Search

> <PubChem CID>
16099923

> <PubChem SID>
104081552

$$$$

  Mrv2115 07222212352D          

 32 35  0  0  0  0            999 V2000
   -2.0492    1.8319    0.0000 C   0  0  0  0  0  0  0  0  0  0  0  0
   -1.2288    1.7457    0.0000 C   0  0  0  0  0  0  0  0  0  0  0  0
   -0.8932    0.9920    0.0000 N   0  0  0  0  0  0  0  0  0  0  0  0
   -0.0862    0.8205    0.0000 N   0  0  0  0  0  0  0  0  0  0  0  0
    0.0000   -0.0000    0.0000 C   0  0  0  0  0  0  0  0  0  0  0  0
    0.7145   -0.4125    0.0000 C   0  0  0  0  0  0  0  0  0  0  0  0
    1.4289    0.0000    0.0000 C   0  0  0  0  0  0  0  0  0  0  0  0
    2.1434   -0.4125    0.0000 C   0  0  0  0  0  0  0  0  0  0  0  0
    2.8579    0.0000    0.0000 C   0  0  0  0  0  0  0  0  0  0  0  0
    2.8579    0.8250    0.0000 C   0  0  0  0  0  0  0  0  0  0  0  0
    3.5724    1.2375    0.0000 C   0  0  0  0  0  0  0  0  0  0  0  0
    2.1434    1.2375    0.0000 C   0  0  0  0  0  0  0  0  0  0  0  0
    3.5724   -0.4125    0.0000 C   0  0  0  0  0  0  0  0  0  0  0  0
    3.5724   -1.2375    0.0000 N   0  0  0  0  0  0  0  0  0  0  0  0
    4.2868   -1.6500    0.0000 C   0  0  0  0  0  0  0  0  0  0  0  0
    5.0013   -1.2375    0.0000 C   0  0  0  0  0  0  0  0  0  0  0  0
    5.7158   -1.6500    0.0000 C   0  0  0  0  0  0  0  0  0  0  0  0
    5.7158   -2.4750    0.0000 C   0  0  0  0  0  0  0  0  0  0  0  0
    5.0013   -2.8875    0.0000 C   0  0  0  0  0  0  0  0  0  0  0  0
    4.2868   -2.4750    0.0000 C   0  0  0  0  0  0  0  0  0  0  0  0
    3.5724   -2.8875    0.0000 C   0  0  0  0  0  0  0  0  0  0  0  0
    2.8579   -1.6500    0.0000 C   0  0  0  0  0  0  0  0  0  0  0  0
    2.8579   -2.4750    0.0000 O   0  0  0  0  0  0  0  0  0  0  0  0
    2.1434   -1.2375    0.0000 C   0  0  0  0  0  0  0  0  0  0  0  0
    1.4289   -1.6500    0.0000 C   0  0  0  0  0  0  0  0  0  0  0  0
    0.7145   -1.2375    0.0000 C   0  0  0  0  0  0  0  0  0  0  0  0
    0.0000   -1.6500    0.0000 F   0  0  0  0  0  0  0  0  0  0  0  0
   -0.7537   -0.3356    0.0000 N   0  0  0  0  0  0  0  0  0  0  0  0
   -1.3057    0.2775    0.0000 C   0  0  0  0  0  0  0  0  0  0  0  0
   -2.1262    0.1913    0.0000 C   0  0  0  0  0  0  0  0  0  0  0  0
   -2.6111    0.8587    0.0000 C   0  0  0  0  0  0  0  0  0  0  0  0
   -2.4617   -0.5624    0.0000 O   0  0  0  0  0  0  0  0  0  0  0  0
  1  2  1  0  0  0  0
  2  3  1  0  0  0  0
  3  4  4  0  0  0  0
  4  5  4  0  0  0  0
  5  6  1  0  0  0  0
  6  7  4  0  0  0  0
  7  8  4  0  0  0  0
  8  9  4  0  0  0  0
  9 10  1  0  0  0  0
 10 11  1  0  0  0  0
 10 12  1  0  0  0  0
  9 13  4  0  0  0  0
 13 14  4  0  0  0  0
 14 15  1  0  0  0  0
 15 16  4  0  0  0  0
 16 17  4  0  0  0  0
 17 18  4  0  0  0  0
 18 19  4  0  0  0  0
 19 20  4  0  0  0  0
 15 20  4  0  0  0  0
 20 21  1  0  0  0  0
 14 22  4  0  0  0  0
 22 23  2  0  0  0  0
 22 24  4  0  0  0  0
  8 24  4  0  0  0  0
 24 25  4  0  0  0  0
 25 26  4  0  0  0  0
  6 26  4  0  0  0  0
 26 27  1  0  0  0  0
  5 28  4  0  0  0  0
 28 29  4  0  0  0  0
  3 29  4  0  0  0  0
 29 30  1  0  0  0  0
 30 31  1  0  0  0  0
 30 32  2  0  0  0  0
M  END
> <IC50(uM)>
0.0062

> <Outcome>
1.0

> <BindingDB ID>
1121386

> <BindingDB MonomerID>
530452

> <BindingDB Ligand Name>
6-(5-Acetyl-1-ethyl-1H-1,2,4-triazol-3-yl)-7-fluoro-4-isopropyl-2-(o-tolyl)isoquinolin-1(2H)-one.::WO2022070068, Example 24

> <Curation/DataSource>
Curated from the literature by BindingDB

> <Article DOI>
?

> <PMID>
WO2022070068

> <Patent Number>
?

> <Authors>
Lindsey, D; Scott, K; Zhuming, Z

> <Link to Ligand in BindingDB>
http://www.bindingdb.org/bind/chemsearch/marvin/MolStructure.jsp?monomerid=530452

> <Link to Ligand-Target Pair in BindingDB>
http://www.bindingdb.org/jsp/dbsearch/PrimarySearch_ki.jsp?energyterm=kJ/mole&tag=r21&monomerid=530452&enzyme=Dihydroorotate+dehydrogenase&column=ki&startPg=0&Increment=50&submit=Search

> <PubChem CID>
?

> <PubChem SID>
?

$$$$

  Mrv2115 07222212352D          

 33 37  0  0  0  0            999 V2000
    3.9934    2.4750    0.0000 N   0  0  0  0  0  0  0  0  0  0  0  0
    3.2789    2.0625    0.0000 C   0  0  0  0  0  0  0  0  0  0  0  0
    2.5645    2.4750    0.0000 O   0  0  0  0  0  0  0  0  0  0  0  0
    3.2789    1.2375    0.0000 C   0  0  0  0  0  0  0  0  0  0  0  0
    3.9934    0.8250    0.0000 C   0  0  0  0  0  0  0  0  0  0  0  0
    3.9934    0.0000    0.0000 C   0  0  0  0  0  0  0  0  0  0  0  0
    3.2789   -0.4125    0.0000 C   0  0  0  0  0  0  0  0  0  0  0  0
    2.5645    0.0000    0.0000 C   0  0  0  0  0  0  0  0  0  0  0  0
    1.7798   -0.2549    0.0000 N   0  0  0  0  0  0  0  0  0  0  0  0
    1.2949    0.4125    0.0000 C   0  0  0  0  0  0  0  0  0  0  0  0
    0.4699    0.4125    0.0000 C   0  0  0  0  0  0  0  0  0  0  0  0
    0.0574   -0.3020    0.0000 C   0  0  0  0  0  0  0  0  0  0  0  0
   -0.7676   -0.3020    0.0000 C   0  0  0  0  0  0  0  0  0  0  0  0
   -1.1801    0.4125    0.0000 C   0  0  0  0  0  0  0  0  0  0  0  0
   -2.0051    0.4125    0.0000 C   0  0  0  0  0  0  0  0  0  0  0  0
   -2.4176   -0.3020    0.0000 C   0  0  0  0  0  0  0  0  0  0  0  0
   -3.2426   -0.3020    0.0000 C   0  0  0  0  0  0  0  0  0  0  0  0
   -3.6551    0.4125    0.0000 C   0  0  0  0  0  0  0  0  0  0  0  0
   -4.4801    0.4125    0.0000 O   0  0  0  0  0  0  0  0  0  0  0  0
   -4.8926    1.1270    0.0000 C   0  0  0  0  0  0  0  0  0  0  0  0
   -5.7176    1.1270    0.0000 C   0  0  0  0  0  0  0  0  0  0  0  0
   -6.1301    1.8414    0.0000 N   0  0  0  0  0  0  0  0  0  0  0  0
   -6.9551    1.8414    0.0000 C   0  0  0  0  0  0  0  0  0  0  0  0
   -7.3676    2.5559    0.0000 C   0  0  0  0  0  0  0  0  0  0  0  0
   -6.9551    3.2704    0.0000 C   0  0  0  0  0  0  0  0  0  0  0  0
   -6.1301    3.2704    0.0000 C   0  0  0  0  0  0  0  0  0  0  0  0
   -5.7176    2.5559    0.0000 C   0  0  0  0  0  0  0  0  0  0  0  0
   -3.2426    1.1270    0.0000 C   0  0  0  0  0  0  0  0  0  0  0  0
   -2.4176    1.1270    0.0000 C   0  0  0  0  0  0  0  0  0  0  0  0
   -0.7676    1.1270    0.0000 C   0  0  0  0  0  0  0  0  0  0  0  0
    0.0574    1.1270    0.0000 C   0  0  0  0  0  0  0  0  0  0  0  0
    1.7798    1.0799    0.0000 N   0  0  0  0  0  0  0  0  0  0  0  0
    2.5645    0.8250    0.0000 C   0  0  0  0  0  0  0  0  0  0  0  0
  1  2  1  0  0  0  0
  2  3  2  0  0  0  0
  2  4  1  0  0  0  0
  4  5  4  0  0  0  0
  5  6  4  0  0  0  0
  6  7  4  0  0  0  0
  7  8  4  0  0  0  0
  8  9  4  0  0  0  0
  9 10  4  0  0  0  0
 10 11  1  0  0  0  0
 11 12  4  0  0  0  0
 12 13  4  0  0  0  0
 13 14  4  0  0  0  0
 14 15  1  0  0  0  0
 15 16  4  0  0  0  0
 16 17  4  0  0  0  0
 17 18  4  0  0  0  0
 18 19  1  0  0  0  0
 19 20  1  0  0  0  0
 20 21  1  0  0  0  0
 21 22  1  0  0  0  0
 22 23  1  0  0  0  0
 23 24  1  0  0  0  0
 24 25  1  0  0  0  0
 25 26  1  0  0  0  0
 26 27  1  0  0  0  0
 22 27  1  0  0  0  0
 18 28  4  0  0  0  0
 28 29  4  0  0  0  0
 15 29  4  0  0  0  0
 14 30  4  0  0  0  0
 30 31  4  0  0  0  0
 11 31  4  0  0  0  0
 10 32  4  0  0  0  0
 32 33  4  0  0  0  0
  4 33  4  0  0  0  0
  8 33  4  0  0  0  0
M  STY  1   1 DAT
M  SAL   1  1   9
M  SDT   1 MRV_IMPLICIT_H                                        
M  SDD   1     0.5304   -0.4125    DR    ALL  0       0  
M  SED   1 IMPL_H1
M  END
> <IC50(uM)>
31.0

> <Outcome>
0.0

> <BindingDB ID>
50358224

> <BindingDB MonomerID>
50096148

> <BindingDB Ligand Name>
CHEMBL3593992

> <Curation/DataSource>
ChEMBL

> <Article DOI>
10.1016/j.bmc.2015.05.051

> <PMID>
26088338

> <Patent Number>
?

> <Authors>
Abdullah, I; Chee, CF; Lee, YK; Thunuguntla, SS; Satish Reddy, K; Nellore, K; Antony, T; Verma, J; Mun, KW; Othman, S; Subramanya, H; Rahman, NA

> <Link to Ligand in BindingDB>
http://www.bindingdb.org/bind/chemsearch/marvin/MolStructure.jsp?monomerid=50096148

> <Link to Ligand-Target Pair in BindingDB>
http://www.bindingdb.org/jsp/dbsearch/PrimarySearch_ki.jsp?energyterm=kJ/mole&tag=r21&monomerid=50096148&enzyme=Dihydroorotate+dehydrogenase&column=ki&startPg=0&Increment=50&submit=Search

> <PubChem CID>
122182320

> <PubChem SID>
318473801

$$$$

  Mrv2115 07222212352D          

 25 29  0  0  0  0            999 V2000
    7.0714   -0.1271    0.0000 C   0  0  0  0  0  0  0  0  0  0  0  0
    6.3569   -0.5396    0.0000 C   0  0  0  0  0  0  0  0  0  0  0  0
    6.3569   -1.3646    0.0000 C   0  0  0  0  0  0  0  0  0  0  0  0
    5.6424   -1.7771    0.0000 C   0  0  0  0  0  0  0  0  0  0  0  0
    5.6424   -2.6021    0.0000 N   0  0  0  0  0  0  0  0  0  0  0  0
    4.9279   -3.0146    0.0000 C   0  0  0  0  0  0  0  0  0  0  0  0
    4.9279   -3.8396    0.0000 C   0  0  0  0  0  0  0  0  0  0  0  0
    4.2135   -4.2521    0.0000 C   0  0  0  0  0  0  0  0  0  0  0  0
    3.4990   -3.8396    0.0000 C   0  0  0  0  0  0  0  0  0  0  0  0
    2.7845   -4.2521    0.0000 C   0  0  0  0  0  0  0  0  0  0  0  0
    2.0701   -3.8396    0.0000 C   0  0  0  0  0  0  0  0  0  0  0  0
    1.3556   -4.2521    0.0000 C   0  0  0  0  0  0  0  0  0  0  0  0
    0.6411   -3.8396    0.0000 C   0  0  0  0  0  0  0  0  0  0  0  0
    0.6411   -3.0146    0.0000 C   0  0  0  0  0  0  0  0  0  0  0  0
    1.3556   -2.6021    0.0000 C   0  0  0  0  0  0  0  0  0  0  0  0
    2.0701   -3.0146    0.0000 C   0  0  0  0  0  0  0  0  0  0  0  0
    2.7845   -2.6021    0.0000 C   0  0  0  0  0  0  0  0  0  0  0  0
    3.4990   -3.0146    0.0000 C   0  0  0  0  0  0  0  0  0  0  0  0
    4.2135   -2.6021    0.0000 C   0  0  0  0  0  0  0  0  0  0  0  0
    4.9279   -1.3646    0.0000 N   0  0  0  0  0  0  0  0  0  0  0  0
    4.1433   -1.6195    0.0000 N   0  0  0  0  0  0  0  0  0  0  0  0
    3.6584   -0.9521    0.0000 C   0  0  0  0  0  0  0  0  0  0  0  0
    4.1433   -0.2846    0.0000 N   0  0  0  0  0  0  0  0  0  0  0  0
    4.9279   -0.5396    0.0000 C   0  0  0  0  0  0  0  0  0  0  0  0
    5.6424   -0.1271    0.0000 N   0  0  0  0  0  0  0  0  0  0  0  0
  1  2  1  0  0  0  0
  2  3  4  0  0  0  0
  3  4  4  0  0  0  0
  4  5  1  0  0  0  0
  5  6  1  0  0  0  0
  6  7  4  0  0  0  0
  7  8  4  0  0  0  0
  8  9  4  0  0  0  0
  9 10  4  0  0  0  0
 10 11  4  0  0  0  0
 11 12  4  0  0  0  0
 12 13  4  0  0  0  0
 13 14  4  0  0  0  0
 14 15  4  0  0  0  0
 15 16  4  0  0  0  0
 11 16  4  0  0  0  0
 16 17  4  0  0  0  0
 17 18  4  0  0  0  0
  9 18  4  0  0  0  0
 18 19  4  0  0  0  0
  6 19  4  0  0  0  0
  4 20  4  0  0  0  0
 20 21  4  0  0  0  0
 21 22  4  0  0  0  0
 22 23  4  0  0  0  0
 23 24  4  0  0  0  0
 20 24  4  0  0  0  0
 24 25  4  0  0  0  0
  2 25  4  0  0  0  0
M  END
> <IC50(uM)>
200.0

> <Outcome>
0.0

> <BindingDB ID>
52443

> <BindingDB MonomerID>
24413

> <BindingDB Ligand Name>
JMC521864 Compund DSM2::N-(anthracen-2-yl)-5-methyl-[1,2,4]triazolo[1,5-a]pyrimidin-7-amine::Triazolopyrimidine-Based Compound, 20

> <Curation/DataSource>
Curated from the literature by BindingDB

> <Article DOI>
10.1021/jm801343r

> <PMID>
19296651

> <Patent Number>
?

> <Authors>
Gujjar, R; Marwaha, A; El Mazouni, F; White, J; White, KL; Creason, S; Shackleford, DM; Baldwin, J; Charman, WN; Buckner, FS; Charman, S; Rathod, PK; Phillips, MA

> <Link to Ligand in BindingDB>
http://www.bindingdb.org/bind/chemsearch/marvin/MolStructure.jsp?monomerid=24413

> <Link to Ligand-Target Pair in BindingDB>
http://www.bindingdb.org/jsp/dbsearch/PrimarySearch_ki.jsp?energyterm=kJ/mole&tag=r21&monomerid=24413&enzyme=Dihydroorotate+Dehydrogenase+%28DHODH%29&column=ki&startPg=0&Increment=50&submit=Search

> <PubChem CID>
24882195

> <PubChem SID>
53786409

$$$$

  Mrv2115 07222212352D          

 35 38  0  0  0  0            999 V2000
   -3.1034    2.1599    0.0000 C   0  0  0  0  0  0  0  0  0  0  0  0
   -2.6909    1.4455    0.0000 C   0  0  0  0  0  0  0  0  0  0  0  0
   -3.1034    0.7310    0.0000 O   0  0  0  0  0  0  0  0  0  0  0  0
   -2.6909    0.0165    0.0000 C   0  0  0  0  0  0  0  0  0  0  0  0
   -1.8659    0.0165    0.0000 C   0  0  0  0  0  0  0  0  0  0  0  0
   -1.4534   -0.6979    0.0000 C   0  0  0  0  0  0  0  0  0  0  0  0
   -0.6284   -0.6979    0.0000 N   0  0  0  0  0  0  0  0  0  0  0  0
   -0.1435   -1.3654    0.0000 N   0  0  0  0  0  0  0  0  0  0  0  0
    0.6411   -1.1104    0.0000 C   0  0  0  0  0  0  0  0  0  0  0  0
    0.6411   -0.2854    0.0000 N   0  0  0  0  0  0  0  0  0  0  0  0
   -0.1435   -0.0305    0.0000 C   0  0  0  0  0  0  0  0  0  0  0  0
   -0.3984    0.7541    0.0000 O   0  0  0  0  0  0  0  0  0  0  0  0
    1.3556    0.1271    0.0000 C   0  0  0  0  0  0  0  0  0  0  0  0
    2.0701   -0.2854    0.0000 C   0  0  0  0  0  0  0  0  0  0  0  0
    2.0701   -1.1104    0.0000 C   0  0  0  0  0  0  0  0  0  0  0  0
    1.3556   -1.5229    0.0000 C   0  0  0  0  0  0  0  0  0  0  0  0
   -1.8659   -1.4124    0.0000 C   0  0  0  0  0  0  0  0  0  0  0  0
   -1.4534   -2.1269    0.0000 F   0  0  0  0  0  0  0  0  0  0  0  0
   -2.6909   -1.4124    0.0000 C   0  0  0  0  0  0  0  0  0  0  0  0
   -3.1034   -0.6979    0.0000 C   0  0  0  0  0  0  0  0  0  0  0  0
   -3.9284   -0.6979    0.0000 C   0  0  0  0  0  0  0  0  0  0  0  0
   -4.3409    0.0165    0.0000 O   0  0  0  0  0  0  0  0  0  0  0  0
   -4.3409   -1.4124    0.0000 N   0  0  0  0  0  0  0  0  0  0  0  0
   -5.1659   -1.4124    0.0000 C   0  0  0  0  0  0  0  0  0  0  0  0
   -5.5784   -2.1269    0.0000 C   0  0  0  0  0  0  0  0  0  0  0  0
   -6.4034   -2.1269    0.0000 C   0  0  0  0  0  0  0  0  0  0  0  0
   -6.8159   -1.4124    0.0000 C   0  0  0  0  0  0  0  0  0  0  0  0
   -7.4479   -1.9427    0.0000 F   0  0  0  0  0  0  0  0  0  0  0  0
   -7.4479   -0.8821    0.0000 F   0  0  0  0  0  0  0  0  0  0  0  0
   -6.4034   -0.6979    0.0000 C   0  0  0  0  0  0  0  0  0  0  0  0
   -5.5784   -0.6979    0.0000 C   0  0  0  0  0  0  0  0  0  0  0  0
   -1.8659    1.4455    0.0000 C   0  0  0  0  0  0  0  0  0  0  0  0
   -1.8659    0.6205    0.0000 F   0  0  0  0  0  0  0  0  0  0  0  0
   -1.8659    2.2705    0.0000 F   0  0  0  0  0  0  0  0  0  0  0  0
   -1.0409    1.4455    0.0000 F   0  0  0  0  0  0  0  0  0  0  0  0
  1  2  1  0  0  0  0
  2  3  1  0  0  0  0
  3  4  1  0  0  0  0
  4  5  4  0  0  0  0
  5  6  4  0  0  0  0
  6  7  1  0  0  0  0
  7  8  4  0  0  0  0
  8  9  4  0  0  0  0
  9 10  4  0  0  0  0
 10 11  4  0  0  0  0
  7 11  4  0  0  0  0
 11 12  2  0  0  0  0
 10 13  1  0  0  0  0
 13 14  1  0  0  0  0
 14 15  1  0  0  0  0
 15 16  1  0  0  0  0
  9 16  1  0  0  0  0
  6 17  4  0  0  0  0
 17 18  1  0  0  0  0
 17 19  4  0  0  0  0
 19 20  4  0  0  0  0
  4 20  4  0  0  0  0
 20 21  1  0  0  0  0
 21 22  2  0  0  0  0
 21 23  1  0  0  0  0
 23 24  1  0  0  0  0
 24 25  1  0  0  0  0
 25 26  1  0  0  0  0
 26 27  1  0  0  0  0
 27 28  1  0  0  0  0
 27 29  1  0  0  0  0
 27 30  1  0  0  0  0
 30 31  1  0  0  0  0
 24 31  1  0  0  0  0
  2 32  1  0  0  0  0
 32 33  1  0  0  0  0
 32 34  1  0  0  0  0
 32 35  1  0  0  0  0
M  END
> <IC50(uM)>
0.22

> <Outcome>
1.0

> <BindingDB ID>
1020438

> <BindingDB MonomerID>
490389

> <BindingDB Ligand Name>
N-(4,4-difluorocyclohexyl)-5-fluoro-4-(3-oxo-5,6,7,8-tetrahydro[1,2,4]triazolo[4,3-a]pyridin-2(3H)-yl)-2-{[(2S)-1,1,1-trifluoropropan-2-yl]oxy}benzamide::US10968216, Example 57

> <Curation/DataSource>
US Patent

> <Article DOI>
?

> <PMID>
?

> <Patent Number>
US10968216

> <Authors>
Gradl, SN; Nguyen, D; Eis, K; Gunther, J; Stellfeld, T; Janzer, A; Christian, S; Mueller, T; Sheikh, SE; Zhou, HJ; Zhao, C; Sykes, DB; Ferrara, SJ; Liu, K; Herbert, SA; Merz, C; Niehues, M; Nising, CF; Schafer, M; Zimmermann, K; Knablein, J; Thede, K; Faupel, T

> <Link to Ligand in BindingDB>
http://www.bindingdb.org/bind/chemsearch/marvin/MolStructure.jsp?monomerid=490389

> <Link to Ligand-Target Pair in BindingDB>
http://www.bindingdb.org/jsp/dbsearch/PrimarySearch_ki.jsp?energyterm=kJ/mole&tag=r21&monomerid=490389&enzyme=Dihydroorotate+dehydrogenase&column=ki&startPg=0&Increment=50&submit=Search

> <PubChem CID>
134473856

> <PubChem SID>
447117116

$$$$

  Mrv2115 07222212352D          

 25 28  0  0  0  0            999 V2000
    2.5645    4.9500    0.0000 C   0  0  0  0  0  0  0  0  0  0  0  0
    3.2789    4.5375    0.0000 C   0  0  0  0  0  0  0  0  0  0  0  0
    3.9934    4.9500    0.0000 C   0  0  0  0  0  0  0  0  0  0  0  0
    4.7079    4.5375    0.0000 C   0  0  0  0  0  0  0  0  0  0  0  0
    4.7079    3.7125    0.0000 N   0  0  0  0  0  0  0  0  0  0  0  0
    3.9934    3.3000    0.0000 C   0  0  0  0  0  0  0  0  0  0  0  0
    3.9934    2.4750    0.0000 C   0  0  0  0  0  0  0  0  0  0  0  0
    4.7079    2.0625    0.0000 O   0  0  0  0  0  0  0  0  0  0  0  0
    3.2789    2.0625    0.0000 N   0  0  0  0  0  0  0  0  0  0  0  0
    3.2789    1.2375    0.0000 C   0  0  0  0  0  0  0  0  0  0  0  0
    3.9934    0.8250    0.0000 C   0  0  0  0  0  0  0  0  0  0  0  0
    3.9934    0.0000    0.0000 C   0  0  0  0  0  0  0  0  0  0  0  0
    3.2789   -0.4125    0.0000 C   0  0  0  0  0  0  0  0  0  0  0  0
    2.5645    0.0000    0.0000 C   0  0  0  0  0  0  0  0  0  0  0  0
    2.5645    0.8250    0.0000 C   0  0  0  0  0  0  0  0  0  0  0  0
    1.7798    1.0799    0.0000 C   0  0  0  0  0  0  0  0  0  0  0  0
    1.2949    0.4125    0.0000 N   0  0  0  0  0  0  0  0  0  0  0  0
    1.7798   -0.2549    0.0000 N   0  0  0  0  0  0  0  0  0  0  0  0
    1.5249   -1.0396    0.0000 C   0  0  0  0  0  0  0  0  0  0  0  0
    2.0769   -1.6527    0.0000 C   0  0  0  0  0  0  0  0  0  0  0  0
    1.8220   -2.4373    0.0000 C   0  0  0  0  0  0  0  0  0  0  0  0
    1.0150   -2.6088    0.0000 C   0  0  0  0  0  0  0  0  0  0  0  0
    0.4630   -1.9957    0.0000 C   0  0  0  0  0  0  0  0  0  0  0  0
    0.7179   -1.2111    0.0000 C   0  0  0  0  0  0  0  0  0  0  0  0
    3.2789    3.7125    0.0000 C   0  0  0  0  0  0  0  0  0  0  0  0
  1  2  1  0  0  0  0
  2  3  4  0  0  0  0
  3  4  4  0  0  0  0
  4  5  4  0  0  0  0
  5  6  4  0  0  0  0
  6  7  1  0  0  0  0
  7  8  2  0  0  0  0
  7  9  1  0  0  0  0
  9 10  1  0  0  0  0
 10 11  1  0  0  0  0
 11 12  1  0  0  0  0
 12 13  1  0  0  0  0
 13 14  1  0  0  0  0
 14 15  4  0  0  0  0
 10 15  1  0  0  0  0
 15 16  4  0  0  0  0
 16 17  4  0  0  0  0
 17 18  4  0  0  0  0
 14 18  4  0  0  0  0
 18 19  1  0  0  0  0
 19 20  4  0  0  0  0
 20 21  4  0  0  0  0
 21 22  4  0  0  0  0
 22 23  4  0  0  0  0
 23 24  4  0  0  0  0
 19 24  4  0  0  0  0
  6 25  4  0  0  0  0
  2 25  4  0  0  0  0
M  END
> <IC50(uM)>
0.441

> <Outcome>
1.0

> <BindingDB ID>
993111

> <BindingDB MonomerID>
477613

> <BindingDB Ligand Name>
4-methyl-N-(1-phenyl-4,5,6,7-tetrahydro-1H-indazol-4-yl)pyridine-2-carboxamide::US10889564, Example 43

> <Curation/DataSource>
US Patent

> <Article DOI>
?

> <PMID>
?

> <Patent Number>
US10889564

> <Authors>
Lain, S; Drummond, C; Leeuwen, IV; Haraldsson, M; Johansson, L; Sandberg, L; Yngve, U

> <Link to Ligand in BindingDB>
http://www.bindingdb.org/bind/chemsearch/marvin/MolStructure.jsp?monomerid=477613

> <Link to Ligand-Target Pair in BindingDB>
http://www.bindingdb.org/jsp/dbsearch/PrimarySearch_ki.jsp?energyterm=kJ/mole&tag=r21&monomerid=477613&enzyme=Dihydroorotate+dehydrogenase&column=ki&startPg=0&Increment=50&submit=Search

> <PubChem CID>
129127258

> <PubChem SID>
442137230

$$$$

  Mrv2115 07222212352D          

 26 29  0  0  0  0            999 V2000
    4.0668    2.3479    0.0000 C   0  0  0  0  0  0  0  0  0  0  0  0
    3.3523    1.9354    0.0000 C   0  0  0  0  0  0  0  0  0  0  0  0
    3.3523    1.1104    0.0000 C   0  0  0  0  0  0  0  0  0  0  0  0
    2.6378    0.6979    0.0000 C   0  0  0  0  0  0  0  0  0  0  0  0
    2.6378   -0.1271    0.0000 C   0  0  0  0  0  0  0  0  0  0  0  0
    1.9233   -0.5396    0.0000 O   0  0  0  0  0  0  0  0  0  0  0  0
    3.3523   -0.5396    0.0000 O   0  0  0  0  0  0  0  0  0  0  0  0
    1.9233    1.1104    0.0000 C   0  0  0  0  0  0  0  0  0  0  0  0
    1.1387    0.8555    0.0000 N   0  0  0  0  0  0  0  0  0  0  0  0
    0.6538    1.5229    0.0000 C   0  0  0  0  0  0  0  0  0  0  0  0
   -0.1712    1.5229    0.0000 C   0  0  0  0  0  0  0  0  0  0  0  0
   -0.5837    0.8085    0.0000 C   0  0  0  0  0  0  0  0  0  0  0  0
   -1.4087    0.8085    0.0000 C   0  0  0  0  0  0  0  0  0  0  0  0
   -1.8212    1.5229    0.0000 C   0  0  0  0  0  0  0  0  0  0  0  0
   -2.6462    1.5229    0.0000 C   0  0  0  0  0  0  0  0  0  0  0  0
   -3.0587    0.8085    0.0000 C   0  0  0  0  0  0  0  0  0  0  0  0
   -3.8837    0.8085    0.0000 C   0  0  0  0  0  0  0  0  0  0  0  0
   -4.2962    1.5229    0.0000 C   0  0  0  0  0  0  0  0  0  0  0  0
   -5.1212    1.5229    0.0000 O   0  0  0  0  0  0  0  0  0  0  0  0
   -3.8837    2.2374    0.0000 C   0  0  0  0  0  0  0  0  0  0  0  0
   -3.0587    2.2374    0.0000 C   0  0  0  0  0  0  0  0  0  0  0  0
   -1.4087    2.2374    0.0000 C   0  0  0  0  0  0  0  0  0  0  0  0
   -0.5837    2.2374    0.0000 C   0  0  0  0  0  0  0  0  0  0  0  0
    1.1387    2.1904    0.0000 N   0  0  0  0  0  0  0  0  0  0  0  0
    1.9233    1.9354    0.0000 C   0  0  0  0  0  0  0  0  0  0  0  0
    2.6378    2.3479    0.0000 C   0  0  0  0  0  0  0  0  0  0  0  0
  1  2  1  0  0  0  0
  2  3  4  0  0  0  0
  3  4  4  0  0  0  0
  4  5  1  0  0  0  0
  5  6  2  0  0  0  0
  5  7  1  0  0  0  0
  4  8  4  0  0  0  0
  8  9  4  0  0  0  0
  9 10  4  0  0  0  0
 10 11  1  0  0  0  0
 11 12  4  0  0  0  0
 12 13  4  0  0  0  0
 13 14  4  0  0  0  0
 14 15  1  0  0  0  0
 15 16  4  0  0  0  0
 16 17  4  0  0  0  0
 17 18  4  0  0  0  0
 18 19  1  0  0  0  0
 18 20  4  0  0  0  0
 20 21  4  0  0  0  0
 15 21  4  0  0  0  0
 14 22  4  0  0  0  0
 22 23  4  0  0  0  0
 11 23  4  0  0  0  0
 10 24  4  0  0  0  0
 24 25  4  0  0  0  0
  8 25  4  0  0  0  0
 25 26  4  0  0  0  0
  2 26  4  0  0  0  0
M  STY  1   1 DAT
M  SAL   1  1  24
M  SDT   1 MRV_IMPLICIT_H                                        
M  SDD   1     0.5304   -0.4125    DR    ALL  0       0  
M  SED   1 IMPL_H1
M  END
> <IC50(uM)>
0.35

> <Outcome>
1.0

> <BindingDB ID>
297819

> <BindingDB MonomerID>
155475

> <BindingDB Ligand Name>
US9006454, I117

> <Curation/DataSource>
US Patent

> <Article DOI>
?

> <PMID>
?

> <Patent Number>
US9006454

> <Authors>
Thunuguntla, SS; Subramanya, H; Kunnam, SR; Sanivaru Vijay, SR; Bingi, C; Kusanur, R; Schwarz, M; Arlt, M

> <Link to Ligand in BindingDB>
http://www.bindingdb.org/bind/chemsearch/marvin/MolStructure.jsp?monomerid=155475

> <Link to Ligand-Target Pair in BindingDB>
http://www.bindingdb.org/jsp/dbsearch/PrimarySearch_ki.jsp?energyterm=kJ/mole&tag=r21&monomerid=155475&enzyme=Dihydroorotate+dehydrogenase&column=ki&startPg=0&Increment=50&submit=Search

> <PubChem CID>
58073751

> <PubChem SID>
253658412

$$$$

  Mrv2115 07222212352D          

 36 39  0  0  0  0            999 V2000
   -3.1034    2.1599    0.0000 C   0  0  0  0  0  0  0  0  0  0  0  0
   -2.6909    1.4455    0.0000 C   0  0  0  0  0  0  0  0  0  0  0  0
   -3.1034    0.7310    0.0000 O   0  0  0  0  0  0  0  0  0  0  0  0
   -2.6909    0.0165    0.0000 C   0  0  0  0  0  0  0  0  0  0  0  0
   -1.8659    0.0165    0.0000 C   0  0  0  0  0  0  0  0  0  0  0  0
   -1.4534   -0.6979    0.0000 C   0  0  0  0  0  0  0  0  0  0  0  0
   -0.6284   -0.6979    0.0000 N   0  0  0  0  0  0  0  0  0  0  0  0
   -0.1435   -1.3654    0.0000 N   0  0  0  0  0  0  0  0  0  0  0  0
    0.6411   -1.1104    0.0000 C   0  0  0  0  0  0  0  0  0  0  0  0
    0.6411   -0.2854    0.0000 N   0  0  0  0  0  0  0  0  0  0  0  0
   -0.1435   -0.0305    0.0000 C   0  0  0  0  0  0  0  0  0  0  0  0
   -0.3984    0.7541    0.0000 O   0  0  0  0  0  0  0  0  0  0  0  0
    1.3556    0.1271    0.0000 C   0  0  0  0  0  0  0  0  0  0  0  0
    2.0701   -0.2854    0.0000 C   0  0  0  0  0  0  0  0  0  0  0  0
    2.0701   -1.1104    0.0000 C   0  0  0  0  0  0  0  0  0  0  0  0
    1.3556   -1.5229    0.0000 C   0  0  0  0  0  0  0  0  0  0  0  0
   -1.8659   -1.4124    0.0000 C   0  0  0  0  0  0  0  0  0  0  0  0
   -1.4534   -2.1269    0.0000 F   0  0  0  0  0  0  0  0  0  0  0  0
   -2.6909   -1.4124    0.0000 C   0  0  0  0  0  0  0  0  0  0  0  0
   -3.1034   -0.6979    0.0000 C   0  0  0  0  0  0  0  0  0  0  0  0
   -3.9284   -0.6979    0.0000 C   0  0  0  0  0  0  0  0  0  0  0  0
   -4.3409    0.0165    0.0000 O   0  0  0  0  0  0  0  0  0  0  0  0
   -4.3409   -1.4124    0.0000 N   0  0  0  0  0  0  0  0  0  0  0  0
   -5.1659   -1.4124    0.0000 C   0  0  0  0  0  0  0  0  0  0  0  0
   -5.5784   -2.1269    0.0000 C   0  0  0  0  0  0  0  0  0  0  0  0
   -6.4034   -2.1269    0.0000 C   0  0  0  0  0  0  0  0  0  0  0  0
   -6.8159   -2.8414    0.0000 F   0  0  0  0  0  0  0  0  0  0  0  0
   -6.8159   -1.4124    0.0000 C   0  0  0  0  0  0  0  0  0  0  0  0
   -6.4034   -0.6979    0.0000 C   0  0  0  0  0  0  0  0  0  0  0  0
   -5.5784   -0.6979    0.0000 C   0  0  0  0  0  0  0  0  0  0  0  0
   -5.1659    0.0165    0.0000 C   0  0  0  0  0  0  0  0  0  0  0  0
   -4.7534    0.7310    0.0000 N   0  0  0  0  0  0  0  0  0  0  0  0
   -1.8659    1.4455    0.0000 C   0  0  0  0  0  0  0  0  0  0  0  0
   -1.8659    0.6205    0.0000 F   0  0  0  0  0  0  0  0  0  0  0  0
   -1.8659    2.2705    0.0000 F   0  0  0  0  0  0  0  0  0  0  0  0
   -1.0409    1.4455    0.0000 F   0  0  0  0  0  0  0  0  0  0  0  0
  1  2  1  0  0  0  0
  2  3  1  0  0  0  0
  3  4  1  0  0  0  0
  4  5  4  0  0  0  0
  5  6  4  0  0  0  0
  6  7  1  0  0  0  0
  7  8  4  0  0  0  0
  8  9  4  0  0  0  0
  9 10  4  0  0  0  0
 10 11  4  0  0  0  0
  7 11  4  0  0  0  0
 11 12  2  0  0  0  0
 10 13  1  0  0  0  0
 13 14  1  0  0  0  0
 14 15  1  0  0  0  0
 15 16  1  0  0  0  0
  9 16  1  0  0  0  0
  6 17  4  0  0  0  0
 17 18  1  0  0  0  0
 17 19  4  0  0  0  0
 19 20  4  0  0  0  0
  4 20  4  0  0  0  0
 20 21  1  0  0  0  0
 21 22  2  0  0  0  0
 21 23  1  0  0  0  0
 23 24  1  0  0  0  0
 24 25  4  0  0  0  0
 25 26  4  0  0  0  0
 26 27  1  0  0  0  0
 26 28  4  0  0  0  0
 28 29  4  0  0  0  0
 29 30  4  0  0  0  0
 24 30  4  0  0  0  0
 30 31  1  0  0  0  0
 31 32  3  0  0  0  0
  2 33  1  0  0  0  0
 33 34  1  0  0  0  0
 33 35  1  0  0  0  0
 33 36  1  0  0  0  0
M  END
> <IC50(uM)>
0.22

> <Outcome>
1.0

> <BindingDB ID>
1020430

> <BindingDB MonomerID>
490381

> <BindingDB Ligand Name>
N-(2-cyano-5-fluorophenyl)-5-fluoro-4-(3-oxo-5,6,7,8-tetrahydro[1,2,4]triazolo[4,3-a]pyridin-2(3H)-yl)-2-{[(2S)-1,1,1-trifluoropropan-2-yl]oxy}benzamide::US10968216, Example 49

> <Curation/DataSource>
US Patent

> <Article DOI>
?

> <PMID>
?

> <Patent Number>
US10968216

> <Authors>
Gradl, SN; Nguyen, D; Eis, K; Gunther, J; Stellfeld, T; Janzer, A; Christian, S; Mueller, T; Sheikh, SE; Zhou, HJ; Zhao, C; Sykes, DB; Ferrara, SJ; Liu, K; Herbert, SA; Merz, C; Niehues, M; Nising, CF; Schafer, M; Zimmermann, K; Knablein, J; Thede, K; Faupel, T

> <Link to Ligand in BindingDB>
http://www.bindingdb.org/bind/chemsearch/marvin/MolStructure.jsp?monomerid=490381

> <Link to Ligand-Target Pair in BindingDB>
http://www.bindingdb.org/jsp/dbsearch/PrimarySearch_ki.jsp?energyterm=kJ/mole&tag=r21&monomerid=490381&enzyme=Dihydroorotate+dehydrogenase&column=ki&startPg=0&Increment=50&submit=Search

> <PubChem CID>
134474118

> <PubChem SID>
447117108

$$$$

  Mrv2115 07222212352D          

 24 25  0  0  0  0            999 V2000
   -4.2664   -4.0914    0.0000 C   0  0  0  0  0  0  0  0  0  0  0  0
   -3.5520   -4.5039    0.0000 C   0  0  0  0  0  0  0  0  0  0  0  0
   -2.8375   -4.0914    0.0000 C   0  0  0  0  0  0  0  0  0  0  0  0
   -2.1230   -4.5039    0.0000 C   0  0  0  0  0  0  0  0  0  0  0  0
   -1.4086   -4.0914    0.0000 C   0  0  0  0  0  0  0  0  0  0  0  0
   -0.6941   -4.5039    0.0000 C   0  0  0  0  0  0  0  0  0  0  0  0
    0.0204   -4.0914    0.0000 C   0  0  0  0  0  0  0  0  0  0  0  0
    0.1066   -3.2709    0.0000 O   0  0  0  0  0  0  0  0  0  0  0  0
    0.9136   -3.0993    0.0000 N   0  0  0  0  0  0  0  0  0  0  0  0
    1.3261   -3.8138    0.0000 C   0  0  0  0  0  0  0  0  0  0  0  0
    0.7741   -4.4269    0.0000 C   0  0  0  0  0  0  0  0  0  0  0  0
    0.9456   -5.2339    0.0000 C   0  0  0  0  0  0  0  0  0  0  0  0
    0.3325   -5.7859    0.0000 S   0  0  0  0  0  0  0  0  0  0  0  0
    1.7302   -5.4888    0.0000 N   0  0  0  0  0  0  0  0  0  0  0  0
    2.3433   -4.9368    0.0000 C   0  0  0  0  0  0  0  0  0  0  0  0
    2.1718   -4.1298    0.0000 C   0  0  0  0  0  0  0  0  0  0  0  0
    2.7849   -3.5778    0.0000 C   0  0  0  0  0  0  0  0  0  0  0  0
    3.5695   -3.8327    0.0000 C   0  0  0  0  0  0  0  0  0  0  0  0
    4.1826   -3.2807    0.0000 C   0  0  0  0  0  0  0  0  0  0  0  0
    4.7957   -2.7287    0.0000 F   0  0  0  0  0  0  0  0  0  0  0  0
    4.7346   -3.8938    0.0000 F   0  0  0  0  0  0  0  0  0  0  0  0
    3.6306   -2.6676    0.0000 F   0  0  0  0  0  0  0  0  0  0  0  0
    3.7410   -4.6397    0.0000 C   0  0  0  0  0  0  0  0  0  0  0  0
    3.1279   -5.1917    0.0000 C   0  0  0  0  0  0  0  0  0  0  0  0
  1  2  1  0  0  0  0
  2  3  1  0  0  0  0
  3  4  1  0  0  0  0
  4  5  1  0  0  0  0
  5  6  1  0  0  0  0
  6  7  1  0  0  0  0
  7  8  4  0  0  0  0
  8  9  4  0  0  0  0
  9 10  4  0  0  0  0
 10 11  4  0  0  0  0
  7 11  4  0  0  0  0
 11 12  1  0  0  0  0
 12 13  2  0  0  0  0
 12 14  1  0  0  0  0
 14 15  1  0  0  0  0
 15 16  4  0  0  0  0
 16 17  4  0  0  0  0
 17 18  4  0  0  0  0
 18 19  1  0  0  0  0
 19 20  1  0  0  0  0
 19 21  1  0  0  0  0
 19 22  1  0  0  0  0
 18 23  4  0  0  0  0
 23 24  4  0  0  0  0
 15 24  4  0  0  0  0
M  END
> <IC50(uM)>
50.0

> <Outcome>
0.0

> <BindingDB ID>
50123317

> <BindingDB MonomerID>
50071408

> <BindingDB Ligand Name>
5-Hexyl-isoxazole-4-carbothioic acid (4-trifluoromethyl-phenyl)-amide::CHEMBL306831

> <Curation/DataSource>
ChEMBL

> <Article DOI>
10.1016/s0960-894x(98)00365-5

> <PMID>
9873513

> <Patent Number>
?

> <Authors>
Albert, R; Knecht, H; Andersen, E; Hungerford, V; Schreier, MH; Papageorgiou, C

> <Link to Ligand in BindingDB>
http://www.bindingdb.org/bind/chemsearch/marvin/MolStructure.jsp?monomerid=50071408

> <Link to Ligand-Target Pair in BindingDB>
http://www.bindingdb.org/jsp/dbsearch/PrimarySearch_ki.jsp?energyterm=kJ/mole&tag=r21&monomerid=50071408&enzyme=Dihydroorotate+dehydrogenase&column=ki&startPg=0&Increment=50&submit=Search

> <PubChem CID>
44310381

> <PubChem SID>
103965162

$$$$

  Mrv2115 07222212352D          

 33 37  0  0  0  0            999 V2000
    6.1368    3.7125    0.0000 C   0  0  0  0  0  0  0  0  0  0  0  0
    5.4223    3.3000    0.0000 O   0  0  0  0  0  0  0  0  0  0  0  0
    5.4223    2.4750    0.0000 C   0  0  0  0  0  0  0  0  0  0  0  0
    6.1368    2.0625    0.0000 C   0  0  0  0  0  0  0  0  0  0  0  0
    6.1368    1.2375    0.0000 C   0  0  0  0  0  0  0  0  0  0  0  0
    5.4223    0.8250    0.0000 C   0  0  0  0  0  0  0  0  0  0  0  0
    4.7079    1.2375    0.0000 C   0  0  0  0  0  0  0  0  0  0  0  0
    4.7079    2.0625    0.0000 C   0  0  0  0  0  0  0  0  0  0  0  0
    3.9934    2.4750    0.0000 N   0  0  0  0  0  0  0  0  0  0  0  0
    3.2789    2.0625    0.0000 C   0  0  0  0  0  0  0  0  0  0  0  0
    2.5645    2.4750    0.0000 O   0  0  0  0  0  0  0  0  0  0  0  0
    3.2789    1.2375    0.0000 C   0  0  0  0  0  0  0  0  0  0  0  0
    3.9934    0.8250    0.0000 C   0  0  0  0  0  0  0  0  0  0  0  0
    3.9934    0.0000    0.0000 C   0  0  0  0  0  0  0  0  0  0  0  0
    3.2789   -0.4125    0.0000 C   0  0  0  0  0  0  0  0  0  0  0  0
    2.5645    0.0000    0.0000 C   0  0  0  0  0  0  0  0  0  0  0  0
    1.7798   -0.2549    0.0000 N   0  0  0  0  0  0  0  0  0  0  0  0
    1.2949    0.4125    0.0000 C   0  0  0  0  0  0  0  0  0  0  0  0
    0.4699    0.4125    0.0000 C   0  0  0  0  0  0  0  0  0  0  0  0
   -0.0150   -0.2549    0.0000 C   0  0  0  0  0  0  0  0  0  0  0  0
   -0.7996   -0.0000    0.0000 C   0  0  0  0  0  0  0  0  0  0  0  0
   -1.4671   -0.4849    0.0000 Br  0  0  0  0  0  0  0  0  0  0  0  0
   -0.7996    0.8250    0.0000 N   0  0  0  0  0  0  0  0  0  0  0  0
   -0.0150    1.0799    0.0000 N   0  0  0  0  0  0  0  0  0  0  0  0
    0.2399    1.8646    0.0000 C   0  0  0  0  0  0  0  0  0  0  0  0
    1.0469    2.0361    0.0000 N   0  0  0  0  0  0  0  0  0  0  0  0
    1.3018    2.8207    0.0000 C   0  0  0  0  0  0  0  0  0  0  0  0
    0.7498    3.4338    0.0000 C   0  0  0  0  0  0  0  0  0  0  0  0
   -0.0572    3.2623    0.0000 C   0  0  0  0  0  0  0  0  0  0  0  0
   -0.3121    2.4777    0.0000 C   0  0  0  0  0  0  0  0  0  0  0  0
   -1.1191    2.3061    0.0000 Cl  0  0  0  0  0  0  0  0  0  0  0  0
    1.7798    1.0799    0.0000 N   0  0  0  0  0  0  0  0  0  0  0  0
    2.5645    0.8250    0.0000 C   0  0  0  0  0  0  0  0  0  0  0  0
  1  2  1  0  0  0  0
  2  3  1  0  0  0  0
  3  4  4  0  0  0  0
  4  5  4  0  0  0  0
  5  6  4  0  0  0  0
  6  7  4  0  0  0  0
  7  8  4  0  0  0  0
  3  8  4  0  0  0  0
  8  9  1  0  0  0  0
  9 10  1  0  0  0  0
 10 11  2  0  0  0  0
 10 12  1  0  0  0  0
 12 13  4  0  0  0  0
 13 14  4  0  0  0  0
 14 15  4  0  0  0  0
 15 16  4  0  0  0  0
 16 17  4  0  0  0  0
 17 18  4  0  0  0  0
 18 19  1  0  0  0  0
 19 20  4  0  0  0  0
 20 21  4  0  0  0  0
 21 22  1  0  0  0  0
 21 23  4  0  0  0  0
 23 24  4  0  0  0  0
 19 24  4  0  0  0  0
 24 25  1  0  0  0  0
 25 26  4  0  0  0  0
 26 27  4  0  0  0  0
 27 28  4  0  0  0  0
 28 29  4  0  0  0  0
 29 30  4  0  0  0  0
 25 30  4  0  0  0  0
 30 31  1  0  0  0  0
 18 32  4  0  0  0  0
 32 33  4  0  0  0  0
 12 33  4  0  0  0  0
 16 33  4  0  0  0  0
M  STY  1   1 DAT
M  SAL   1  1  32
M  SDT   1 MRV_IMPLICIT_H                                        
M  SDD   1     0.5304   -0.4125    DR    ALL  0       0  
M  SED   1 IMPL_H1
M  END
> <IC50(uM)>
0.178

> <Outcome>
1.0

> <BindingDB ID>
50499499

> <BindingDB MonomerID>
50176140

> <BindingDB Ligand Name>
CHEMBL3808600

> <Curation/DataSource>
ChEMBL

> <Article DOI>
10.1016/j.bmcl.2016.05.016

> <PMID>
27220723

> <Patent Number>
?

> <Authors>
Li, J; Wu, D; Xu, X; Huang, J; Shao, X; Li, Z

> <Link to Ligand in BindingDB>
http://www.bindingdb.org/bind/chemsearch/marvin/MolStructure.jsp?monomerid=50176140

> <Link to Ligand-Target Pair in BindingDB>
http://www.bindingdb.org/jsp/dbsearch/PrimarySearch_ki.jsp?energyterm=kJ/mole&tag=r21&monomerid=50176140&enzyme=Dihydroorotate+dehydrogenase&column=ki&startPg=0&Increment=50&submit=Search

> <PubChem CID>
127043790

> <PubChem SID>
104061811

$$$$

  Mrv2115 07222212352D          

 35 39  0  0  0  0            999 V2000
   -1.8659    1.4455    0.0000 C   0  0  0  0  0  0  0  0  0  0  0  0
   -2.6909    1.4455    0.0000 C   0  0  0  0  0  0  0  0  0  0  0  0
   -3.1034    0.7310    0.0000 O   0  0  0  0  0  0  0  0  0  0  0  0
   -2.6909    0.0165    0.0000 C   0  0  0  0  0  0  0  0  0  0  0  0
   -1.8659    0.0165    0.0000 C   0  0  0  0  0  0  0  0  0  0  0  0
   -1.4534   -0.6979    0.0000 C   0  0  0  0  0  0  0  0  0  0  0  0
   -0.6284   -0.6979    0.0000 N   0  0  0  0  0  0  0  0  0  0  0  0
   -0.1435   -1.3654    0.0000 N   0  0  0  0  0  0  0  0  0  0  0  0
    0.6411   -1.1104    0.0000 C   0  0  0  0  0  0  0  0  0  0  0  0
    0.6411   -0.2854    0.0000 N   0  0  0  0  0  0  0  0  0  0  0  0
   -0.1435   -0.0305    0.0000 C   0  0  0  0  0  0  0  0  0  0  0  0
   -0.3984    0.7541    0.0000 O   0  0  0  0  0  0  0  0  0  0  0  0
    1.3556    0.1271    0.0000 C   0  0  0  0  0  0  0  0  0  0  0  0
    2.0701   -0.2854    0.0000 C   0  0  0  0  0  0  0  0  0  0  0  0
    2.0701   -1.1104    0.0000 C   0  0  0  0  0  0  0  0  0  0  0  0
    1.3556   -1.5229    0.0000 C   0  0  0  0  0  0  0  0  0  0  0  0
   -1.8659   -1.4124    0.0000 C   0  0  0  0  0  0  0  0  0  0  0  0
   -1.4534   -2.1269    0.0000 F   0  0  0  0  0  0  0  0  0  0  0  0
   -2.6909   -1.4124    0.0000 C   0  0  0  0  0  0  0  0  0  0  0  0
   -3.1034   -0.6979    0.0000 C   0  0  0  0  0  0  0  0  0  0  0  0
   -3.9284   -0.6979    0.0000 C   0  0  0  0  0  0  0  0  0  0  0  0
   -4.3409    0.0165    0.0000 O   0  0  0  0  0  0  0  0  0  0  0  0
   -4.3409   -1.4124    0.0000 N   0  0  0  0  0  0  0  0  0  0  0  0
   -3.9284   -2.1269    0.0000 C   0  0  0  0  0  0  0  0  0  0  0  0
   -3.1034   -2.1269    0.0000 C   0  0  0  0  0  0  0  0  0  0  0  0
   -2.6909   -2.8414    0.0000 C   0  0  0  0  0  0  0  0  0  0  0  0
   -3.1034   -3.5558    0.0000 O   0  0  0  0  0  0  0  0  0  0  0  0
   -3.9284   -3.5558    0.0000 C   0  0  0  0  0  0  0  0  0  0  0  0
   -4.3409   -2.8414    0.0000 C   0  0  0  0  0  0  0  0  0  0  0  0
   -3.1034    2.1599    0.0000 C   0  0  0  0  0  0  0  0  0  0  0  0
   -3.9284    2.1599    0.0000 C   0  0  0  0  0  0  0  0  0  0  0  0
   -4.3409    2.8744    0.0000 C   0  0  0  0  0  0  0  0  0  0  0  0
   -3.9284    3.5889    0.0000 C   0  0  0  0  0  0  0  0  0  0  0  0
   -3.1034    3.5889    0.0000 C   0  0  0  0  0  0  0  0  0  0  0  0
   -2.6909    2.8744    0.0000 C   0  0  0  0  0  0  0  0  0  0  0  0
  1  2  1  0  0  0  0
  2  3  1  0  0  0  0
  3  4  1  0  0  0  0
  4  5  4  0  0  0  0
  5  6  4  0  0  0  0
  6  7  1  0  0  0  0
  7  8  4  0  0  0  0
  8  9  4  0  0  0  0
  9 10  4  0  0  0  0
 10 11  4  0  0  0  0
  7 11  4  0  0  0  0
 11 12  2  0  0  0  0
 10 13  1  0  0  0  0
 13 14  1  0  0  0  0
 14 15  1  0  0  0  0
 15 16  1  0  0  0  0
  9 16  1  0  0  0  0
  6 17  4  0  0  0  0
 17 18  1  0  0  0  0
 17 19  4  0  0  0  0
 19 20  4  0  0  0  0
  4 20  4  0  0  0  0
 20 21  1  0  0  0  0
 21 22  2  0  0  0  0
 21 23  1  0  0  0  0
 23 24  1  0  0  0  0
 24 25  1  0  0  0  0
 25 26  1  0  0  0  0
 26 27  1  0  0  0  0
 27 28  1  0  0  0  0
 28 29  1  0  0  0  0
 24 29  1  0  0  0  0
  2 30  1  0  0  0  0
 30 31  1  0  0  0  0
 31 32  1  0  0  0  0
 32 33  1  0  0  0  0
 33 34  1  0  0  0  0
 34 35  1  0  0  0  0
 30 35  1  0  0  0  0
M  END
> <IC50(uM)>
0.09

> <Outcome>
1.0

> <BindingDB ID>
1020556

> <BindingDB MonomerID>
490495

> <BindingDB Ligand Name>
2-[(1S)-1-cyclohexylethoxy]-5-fluoro-4-(3-oxo-5,6,7,8-tetrahydro[1,2,4]triazolo[4,3-a]pyridin-2(3H)-yl)-N-(tetrahydro-2H-pyran-4-yl)benzamide::US10968216, Example 163

> <Curation/DataSource>
US Patent

> <Article DOI>
?

> <PMID>
?

> <Patent Number>
US10968216

> <Authors>
Gradl, SN; Nguyen, D; Eis, K; Gunther, J; Stellfeld, T; Janzer, A; Christian, S; Mueller, T; Sheikh, SE; Zhou, HJ; Zhao, C; Sykes, DB; Ferrara, SJ; Liu, K; Herbert, SA; Merz, C; Niehues, M; Nising, CF; Schafer, M; Zimmermann, K; Knablein, J; Thede, K; Faupel, T

> <Link to Ligand in BindingDB>
http://www.bindingdb.org/bind/chemsearch/marvin/MolStructure.jsp?monomerid=490495

> <Link to Ligand-Target Pair in BindingDB>
http://www.bindingdb.org/jsp/dbsearch/PrimarySearch_ki.jsp?energyterm=kJ/mole&tag=r21&monomerid=490495&enzyme=Dihydroorotate+dehydrogenase&column=ki&startPg=0&Increment=50&submit=Search

> <PubChem CID>
134474367

> <PubChem SID>
447117222

$$$$

  Mrv2115 07222212352D          

 34 36  0  0  0  0            999 V2000
    0.7145   -0.4125    0.0000 C   0  0  0  0  0  0  0  0  0  0  0  0
    0.7145   -1.2375    0.0000 C   0  0  0  0  0  0  0  0  0  0  0  0
    0.0470   -1.7224    0.0000 C   0  0  0  0  0  0  0  0  0  0  0  0
    0.3020   -2.5070    0.0000 N   0  0  0  0  0  0  0  0  0  0  0  0
   -0.1830   -3.1745    0.0000 C   0  0  0  0  0  0  0  0  0  0  0  0
    0.1526   -3.9282    0.0000 C   0  0  0  0  0  0  0  0  0  0  0  0
   -0.3323   -4.5956    0.0000 C   0  0  0  0  0  0  0  0  0  0  0  0
    0.0032   -5.3493    0.0000 O   0  0  0  0  0  0  0  0  0  0  0  0
    0.8237   -5.4355    0.0000 C   0  0  0  0  0  0  0  0  0  0  0  0
    1.3086   -4.7681    0.0000 C   0  0  0  0  0  0  0  0  0  0  0  0
    1.1593   -6.1892    0.0000 C   0  0  0  0  0  0  0  0  0  0  0  0
    0.4056   -6.5247    0.0000 F   0  0  0  0  0  0  0  0  0  0  0  0
    1.9130   -5.8536    0.0000 F   0  0  0  0  0  0  0  0  0  0  0  0
    1.4948   -6.9429    0.0000 F   0  0  0  0  0  0  0  0  0  0  0  0
   -1.1528   -4.5094    0.0000 C   0  0  0  0  0  0  0  0  0  0  0  0
   -1.6377   -5.1768    0.0000 C   0  0  0  0  0  0  0  0  0  0  0  0
   -1.3022   -5.9305    0.0000 O   0  0  0  0  0  0  0  0  0  0  0  0
   -2.4582   -5.0906    0.0000 N   0  0  0  0  0  0  0  0  0  0  0  0
   -2.9431   -5.7580    0.0000 C   0  0  0  0  0  0  0  0  0  0  0  0
   -2.6882   -6.5426    0.0000 C   0  0  0  0  0  0  0  0  0  0  0  0
   -1.9036   -6.7976    0.0000 C   0  0  0  0  0  0  0  0  0  0  0  0
   -3.3556   -7.0275    0.0000 N   0  0  0  0  0  0  0  0  0  0  0  0
   -4.0231   -6.5426    0.0000 N   0  0  0  0  0  0  0  0  0  0  0  0
   -3.7681   -5.7580    0.0000 C   0  0  0  0  0  0  0  0  0  0  0  0
   -4.2530   -5.0906    0.0000 Cl  0  0  0  0  0  0  0  0  0  0  0  0
   -1.4884   -3.7557    0.0000 C   0  0  0  0  0  0  0  0  0  0  0  0
   -1.0034   -3.0882    0.0000 C   0  0  0  0  0  0  0  0  0  0  0  0
   -1.3390   -2.3346    0.0000 F   0  0  0  0  0  0  0  0  0  0  0  0
    1.1270   -2.5070    0.0000 N   0  0  0  0  0  0  0  0  0  0  0  0
    1.3819   -1.7224    0.0000 C   0  0  0  0  0  0  0  0  0  0  0  0
    2.1665   -1.4675    0.0000 C   0  0  0  0  0  0  0  0  0  0  0  0
    1.9116   -0.6829    0.0000 C   0  0  0  0  0  0  0  0  0  0  0  0
    2.9512   -1.2125    0.0000 C   0  0  0  0  0  0  0  0  0  0  0  0
    2.4215   -2.2521    0.0000 O   0  0  0  0  0  0  0  0  0  0  0  0
  1  2  1  0  0  0  0
  2  3  4  0  0  0  0
  3  4  4  0  0  0  0
  4  5  1  0  0  0  0
  5  6  4  0  0  0  0
  6  7  4  0  0  0  0
  7  8  1  0  0  0  0
  8  9  1  0  0  0  0
  9 10  1  0  0  0  0
  9 11  1  0  0  0  0
 11 12  1  0  0  0  0
 11 13  1  0  0  0  0
 11 14  1  0  0  0  0
  7 15  4  0  0  0  0
 15 16  1  0  0  0  0
 16 17  2  0  0  0  0
 16 18  1  0  0  0  0
 18 19  1  0  0  0  0
 19 20  4  0  0  0  0
 20 21  1  0  0  0  0
 20 22  4  0  0  0  0
 22 23  4  0  0  0  0
 23 24  4  0  0  0  0
 19 24  4  0  0  0  0
 24 25  1  0  0  0  0
 15 26  4  0  0  0  0
 26 27  4  0  0  0  0
  5 27  4  0  0  0  0
 27 28  1  0  0  0  0
  4 29  4  0  0  0  0
 29 30  4  0  0  0  0
  2 30  4  0  0  0  0
 30 31  1  0  0  0  0
 31 32  1  0  0  0  0
 31 33  1  0  0  0  0
 31 34  1  0  0  0  0
M  STY  1   1 DAT
M  SAL   1  1  23
M  SDT   1 MRV_IMPLICIT_H                                        
M  SDD   1     0.5304   -0.4125    DR    ALL  0       0  
M  SED   1 IMPL_H1
M  END
> <IC50(uM)>
3.8E-4

> <Outcome>
1.0

> <BindingDB ID>
1121397

> <BindingDB MonomerID>
530463

> <BindingDB Ligand Name>
(S)-N-(5-Chloro-3-methyl-1H-pyrazol-4-yl)-5-fluoro-4-(3-(2-hydroxypropan-2-yl)-4-methyl-1H-pyrazol-1-yl)-2-((1,1,1-trifluoropropan-2-yl)oxy)benzamide::WO2022070069, Example 6

> <Curation/DataSource>
Curated from the literature by BindingDB

> <Article DOI>
?

> <PMID>
WO2022070069

> <Patent Number>
?

> <Authors>
Lindsey, D; Scott, K

> <Link to Ligand in BindingDB>
http://www.bindingdb.org/bind/chemsearch/marvin/MolStructure.jsp?monomerid=530463

> <Link to Ligand-Target Pair in BindingDB>
http://www.bindingdb.org/jsp/dbsearch/PrimarySearch_ki.jsp?energyterm=kJ/mole&tag=r21&monomerid=530463&enzyme=Dihydroorotate+dehydrogenase&column=ki&startPg=0&Increment=50&submit=Search

> <PubChem CID>
?

> <PubChem SID>
?

$$$$

  Mrv2115 07222212352D          

 27 30  0  0  0  0            999 V2000
    0.0000   -1.6500    0.0000 C   0  0  0  0  0  0  0  0  0  0  0  0
    0.7145   -1.2375    0.0000 C   0  0  0  0  0  0  0  0  0  0  0  0
    0.7145   -0.4125    0.0000 C   0  0  0  0  0  0  0  0  0  0  0  0
    0.0000    0.0000    0.0000 C   0  0  0  0  0  0  0  0  0  0  0  0
   -0.7145   -0.4125    0.0000 C   0  0  0  0  0  0  0  0  0  0  0  0
   -1.4289    0.0000    0.0000 C   0  0  0  0  0  0  0  0  0  0  0  0
   -1.4289    0.8250    0.0000 C   0  0  0  0  0  0  0  0  0  0  0  0
   -2.1434    1.2375    0.0000 C   0  0  0  0  0  0  0  0  0  0  0  0
   -2.8579    0.8250    0.0000 C   0  0  0  0  0  0  0  0  0  0  0  0
   -3.5724    1.2375    0.0000 C   0  0  0  0  0  0  0  0  0  0  0  0
   -3.5724    2.0625    0.0000 C   0  0  0  0  0  0  0  0  0  0  0  0
   -2.8579    2.4750    0.0000 N   0  0  0  0  0  0  0  0  0  0  0  0
   -2.1434    2.0625    0.0000 C   0  0  0  0  0  0  0  0  0  0  0  0
   -1.4289    2.4750    0.0000 F   0  0  0  0  0  0  0  0  0  0  0  0
   -0.7145    1.2375    0.0000 C   0  0  0  0  0  0  0  0  0  0  0  0
    0.0000    0.8250    0.0000 C   0  0  0  0  0  0  0  0  0  0  0  0
    1.4289    0.0000    0.0000 N   0  0  0  0  0  0  0  0  0  0  0  0
    2.1434   -0.4125    0.0000 C   0  0  0  0  0  0  0  0  0  0  0  0
    2.8579    0.0000    0.0000 C   0  0  0  0  0  0  0  0  0  0  0  0
    3.5724   -0.4125    0.0000 C   0  0  0  0  0  0  0  0  0  0  0  0
    3.5724   -1.2375    0.0000 C   0  0  0  0  0  0  0  0  0  0  0  0
    2.8579   -1.6500    0.0000 C   0  0  0  0  0  0  0  0  0  0  0  0
    2.1434   -1.2375    0.0000 C   0  0  0  0  0  0  0  0  0  0  0  0
    1.4289   -1.6500    0.0000 C   0  0  0  0  0  0  0  0  0  0  0  0
    1.4289   -2.4750    0.0000 C   0  0  0  0  0  0  0  0  0  0  0  0
    0.7145   -2.8875    0.0000 O   0  0  0  0  0  0  0  0  0  0  0  0
    2.1434   -2.8875    0.0000 O   0  0  0  0  0  0  0  0  0  0  0  0
  1  2  1  0  0  0  0
  2  3  4  0  0  0  0
  3  4  1  0  0  0  0
  4  5  4  0  0  0  0
  5  6  4  0  0  0  0
  6  7  4  0  0  0  0
  7  8  1  0  0  0  0
  8  9  4  0  0  0  0
  9 10  4  0  0  0  0
 10 11  4  0  0  0  0
 11 12  4  0  0  0  0
 12 13  4  0  0  0  0
  8 13  4  0  0  0  0
 13 14  1  0  0  0  0
  7 15  4  0  0  0  0
 15 16  4  0  0  0  0
  4 16  4  0  0  0  0
  3 17  4  0  0  0  0
 17 18  4  0  0  0  0
 18 19  4  0  0  0  0
 19 20  4  0  0  0  0
 20 21  4  0  0  0  0
 21 22  4  0  0  0  0
 22 23  4  0  0  0  0
 18 23  4  0  0  0  0
 23 24  4  0  0  0  0
  2 24  4  0  0  0  0
 24 25  1  0  0  0  0
 25 26  2  0  0  0  0
 25 27  1  0  0  0  0
M  END
> <IC50(uM)>
0.504

> <Outcome>
1.0

> <BindingDB ID>
51126202

> <BindingDB MonomerID>
50461888

> <BindingDB Ligand Name>
CHEMBL4225494

> <Curation/DataSource>
ChEMBL

> <Article DOI>
10.1021/acs.jmedchem.7b01862

> <PMID>
29727569

> <Patent Number>
?

> <Authors>
Madak, JT; Cuthbertson, CR; Miyata, Y; Tamura, S; Petrunak, EM; Stuckey, JA; Han, Y; He, M; Sun, D; Showalter, HD; Neamati, N

> <Link to Ligand in BindingDB>
http://www.bindingdb.org/bind/chemsearch/marvin/MolStructure.jsp?monomerid=50461888

> <Link to Ligand-Target Pair in BindingDB>
http://www.bindingdb.org/jsp/dbsearch/PrimarySearch_ki.jsp?energyterm=kJ/mole&tag=r21&monomerid=50461888&enzyme=Dihydroorotate+dehydrogenase&column=ki&startPg=0&Increment=50&submit=Search

> <PubChem CID>
145967609

> <PubChem SID>
433929153

$$$$

  Mrv2115 07222212352D          

 32 34  0  0  0  0            999 V2000
    0.7145    5.3625    0.0000 C   0  0  0  0  0  0  0  0  0  0  0  0
    0.7145    4.5375    0.0000 C   0  0  0  0  0  0  0  0  0  0  0  0
   -0.1105    4.5375    0.0000 C   0  0  0  0  0  0  0  0  0  0  0  0
    1.5395    4.5375    0.0000 C   0  0  0  0  0  0  0  0  0  0  0  0
    0.7145    3.7125    0.0000 C   0  0  0  0  0  0  0  0  0  0  0  0
    0.0000    3.3000    0.0000 O   0  0  0  0  0  0  0  0  0  0  0  0
    1.4289    3.3000    0.0000 O   0  0  0  0  0  0  0  0  0  0  0  0
    1.4289    2.4750    0.0000 C   0  0  0  0  0  0  0  0  0  0  0  0
    2.1434    2.0625    0.0000 O   0  0  0  0  0  0  0  0  0  0  0  0
    2.1434    1.2375    0.0000 C   0  0  0  0  0  0  0  0  0  0  0  0
    1.4289    0.8250    0.0000 O   0  0  0  0  0  0  0  0  0  0  0  0
    2.8579    0.8250    0.0000 C   0  0  0  0  0  0  0  0  0  0  0  0
    3.5724    1.2375    0.0000 C   0  0  0  0  0  0  0  0  0  0  0  0
    4.2868    0.8250    0.0000 C   0  0  0  0  0  0  0  0  0  0  0  0
    4.2868   -0.0000    0.0000 C   0  0  0  0  0  0  0  0  0  0  0  0
    3.5724   -0.4125    0.0000 C   0  0  0  0  0  0  0  0  0  0  0  0
    2.8579   -0.0000    0.0000 C   0  0  0  0  0  0  0  0  0  0  0  0
    2.1434   -0.4125    0.0000 C   0  0  0  0  0  0  0  0  0  0  0  0
    1.4289   -0.0000    0.0000 N   0  0  0  0  0  0  0  0  0  0  0  0
    0.7145   -0.4125    0.0000 N   0  0  0  0  0  0  0  0  0  0  0  0
    0.7145   -1.2375    0.0000 C   0  0  0  0  0  0  0  0  0  0  0  0
    1.3819   -1.7224    0.0000 N   0  0  0  0  0  0  0  0  0  0  0  0
    1.1270   -2.5070    0.0000 C   0  0  0  0  0  0  0  0  0  0  0  0
    1.6119   -3.1745    0.0000 C   0  0  0  0  0  0  0  0  0  0  0  0
    2.4324   -3.0882    0.0000 C   0  0  0  0  0  0  0  0  0  0  0  0
    2.9173   -3.7557    0.0000 C   0  0  0  0  0  0  0  0  0  0  0  0
    2.5817   -4.5094    0.0000 C   0  0  0  0  0  0  0  0  0  0  0  0
    1.7613   -4.5956    0.0000 C   0  0  0  0  0  0  0  0  0  0  0  0
    1.2763   -3.9282    0.0000 C   0  0  0  0  0  0  0  0  0  0  0  0
    0.4559   -4.0144    0.0000 Cl  0  0  0  0  0  0  0  0  0  0  0  0
    0.3020   -2.5070    0.0000 C   0  0  0  0  0  0  0  0  0  0  0  0
    0.0470   -1.7224    0.0000 S   0  0  0  0  0  0  0  0  0  0  0  0
  1  2  1  0  0  0  0
  2  3  1  0  0  0  0
  2  4  1  0  0  0  0
  2  5  1  0  0  0  0
  5  6  2  0  0  0  0
  5  7  1  0  0  0  0
  7  8  1  0  0  0  0
  8  9  1  0  0  0  0
  9 10  1  0  0  0  0
 10 11  2  0  0  0  0
 10 12  1  0  0  0  0
 12 13  4  0  0  0  0
 13 14  4  0  0  0  0
 14 15  4  0  0  0  0
 15 16  4  0  0  0  0
 16 17  4  0  0  0  0
 12 17  4  0  0  0  0
 17 18  1  0  0  0  0
 18 19  2  0  0  0  0
 19 20  1  0  0  0  0
 20 21  1  0  0  0  0
 21 22  4  0  0  0  0
 22 23  4  0  0  0  0
 23 24  1  0  0  0  0
 24 25  4  0  0  0  0
 25 26  4  0  0  0  0
 26 27  4  0  0  0  0
 27 28  4  0  0  0  0
 28 29  4  0  0  0  0
 24 29  4  0  0  0  0
 29 30  1  0  0  0  0
 23 31  4  0  0  0  0
 31 32  4  0  0  0  0
 21 32  4  0  0  0  0
M  END
> <IC50(uM)>
50.0

> <Outcome>
0.0

> <BindingDB ID>
1001143

> <BindingDB MonomerID>
482829

> <BindingDB Ligand Name>
US10919869, No.  A9

> <Curation/DataSource>
US Patent

> <Article DOI>
?

> <PMID>
?

> <Patent Number>
US10919869

> <Authors>
Li, H; Xu, Y; Wang, R; Zhao, Z; Song, W; Xu, L

> <Link to Ligand in BindingDB>
http://www.bindingdb.org/bind/chemsearch/marvin/MolStructure.jsp?monomerid=482829

> <Link to Ligand-Target Pair in BindingDB>
http://www.bindingdb.org/jsp/dbsearch/PrimarySearch_ki.jsp?energyterm=kJ/mole&tag=r21&monomerid=482829&enzyme=Dihydroorotate+dehydrogenase&column=ki&startPg=0&Increment=50&submit=Search

> <PubChem CID>
132157965

> <PubChem SID>
443551969

$$$$

  Mrv2115 07222212352D          

 36 39  0  0  0  0            999 V2000
   -3.1034    2.1599    0.0000 C   0  0  0  0  0  0  0  0  0  0  0  0
   -2.6909    1.4455    0.0000 C   0  0  0  0  0  0  0  0  0  0  0  0
   -3.1034    0.7310    0.0000 O   0  0  0  0  0  0  0  0  0  0  0  0
   -2.6909    0.0165    0.0000 C   0  0  0  0  0  0  0  0  0  0  0  0
   -1.8659    0.0165    0.0000 C   0  0  0  0  0  0  0  0  0  0  0  0
   -1.4534   -0.6979    0.0000 C   0  0  0  0  0  0  0  0  0  0  0  0
   -0.6284   -0.6979    0.0000 N   0  0  0  0  0  0  0  0  0  0  0  0
   -0.1435   -1.3654    0.0000 N   0  0  0  0  0  0  0  0  0  0  0  0
    0.6411   -1.1104    0.0000 C   0  0  0  0  0  0  0  0  0  0  0  0
    0.6411   -0.2854    0.0000 N   0  0  0  0  0  0  0  0  0  0  0  0
   -0.1435   -0.0305    0.0000 C   0  0  0  0  0  0  0  0  0  0  0  0
   -0.3984    0.7541    0.0000 O   0  0  0  0  0  0  0  0  0  0  0  0
    1.3556    0.1271    0.0000 C   0  0  0  0  0  0  0  0  0  0  0  0
    2.0701   -0.2854    0.0000 C   0  0  0  0  0  0  0  0  0  0  0  0
    2.0701   -1.1104    0.0000 C   0  0  0  0  0  0  0  0  0  0  0  0
    1.3556   -1.5229    0.0000 C   0  0  0  0  0  0  0  0  0  0  0  0
   -1.8659   -1.4124    0.0000 C   0  0  0  0  0  0  0  0  0  0  0  0
   -1.4534   -2.1269    0.0000 F   0  0  0  0  0  0  0  0  0  0  0  0
   -2.6909   -1.4124    0.0000 C   0  0  0  0  0  0  0  0  0  0  0  0
   -3.1034   -0.6979    0.0000 C   0  0  0  0  0  0  0  0  0  0  0  0
   -3.9284   -0.6979    0.0000 C   0  0  0  0  0  0  0  0  0  0  0  0
   -4.3409    0.0165    0.0000 O   0  0  0  0  0  0  0  0  0  0  0  0
   -4.3409   -1.4124    0.0000 N   0  0  0  0  0  0  0  0  0  0  0  0
   -5.1659   -1.4124    0.0000 C   0  0  0  0  0  0  0  0  0  0  0  0
   -5.5784   -2.1269    0.0000 C   0  0  0  0  0  0  0  0  0  0  0  0
   -5.1659   -2.8414    0.0000 F   0  0  0  0  0  0  0  0  0  0  0  0
   -6.4034   -2.1269    0.0000 C   0  0  0  0  0  0  0  0  0  0  0  0
   -6.8159   -1.4124    0.0000 C   0  0  0  0  0  0  0  0  0  0  0  0
   -6.4034   -0.6979    0.0000 C   0  0  0  0  0  0  0  0  0  0  0  0
   -6.8159    0.0165    0.0000 O   0  0  0  0  0  0  0  0  0  0  0  0
   -5.5784   -0.6979    0.0000 C   0  0  0  0  0  0  0  0  0  0  0  0
   -5.1659    0.0165    0.0000 F   0  0  0  0  0  0  0  0  0  0  0  0
   -1.8659    1.4455    0.0000 C   0  0  0  0  0  0  0  0  0  0  0  0
   -1.8659    0.6205    0.0000 F   0  0  0  0  0  0  0  0  0  0  0  0
   -1.8659    2.2705    0.0000 F   0  0  0  0  0  0  0  0  0  0  0  0
   -1.0409    1.4455    0.0000 F   0  0  0  0  0  0  0  0  0  0  0  0
  1  2  1  0  0  0  0
  2  3  1  0  0  0  0
  3  4  1  0  0  0  0
  4  5  4  0  0  0  0
  5  6  4  0  0  0  0
  6  7  1  0  0  0  0
  7  8  4  0  0  0  0
  8  9  4  0  0  0  0
  9 10  4  0  0  0  0
 10 11  4  0  0  0  0
  7 11  4  0  0  0  0
 11 12  2  0  0  0  0
 10 13  1  0  0  0  0
 13 14  1  0  0  0  0
 14 15  1  0  0  0  0
 15 16  1  0  0  0  0
  9 16  1  0  0  0  0
  6 17  4  0  0  0  0
 17 18  1  0  0  0  0
 17 19  4  0  0  0  0
 19 20  4  0  0  0  0
  4 20  4  0  0  0  0
 20 21  1  0  0  0  0
 21 22  2  0  0  0  0
 21 23  1  0  0  0  0
 23 24  1  0  0  0  0
 24 25  4  0  0  0  0
 25 26  1  0  0  0  0
 25 27  4  0  0  0  0
 27 28  4  0  0  0  0
 28 29  4  0  0  0  0
 29 30  1  0  0  0  0
 29 31  4  0  0  0  0
 24 31  4  0  0  0  0
 31 32  1  0  0  0  0
  2 33  1  0  0  0  0
 33 34  1  0  0  0  0
 33 35  1  0  0  0  0
 33 36  1  0  0  0  0
M  END
> <IC50(uM)>
0.015

> <Outcome>
1.0

> <BindingDB ID>
1020697

> <BindingDB MonomerID>
490623

> <BindingDB Ligand Name>
N-(2,6-difluoro-3-hydroxyphenyl)-5-fluoro-4-(3-oxo-5,6,7,8-tetrahydro[1,2,4]triazolo[4,3-a]-pyridin-2(3H)-yl)-2-{[(2S)-1,1,1-trifluoropropan-2-yl]oxy}benzamide::US10968216, Example 291

> <Curation/DataSource>
US Patent

> <Article DOI>
?

> <PMID>
?

> <Patent Number>
US10968216

> <Authors>
Gradl, SN; Nguyen, D; Eis, K; Gunther, J; Stellfeld, T; Janzer, A; Christian, S; Mueller, T; Sheikh, SE; Zhou, HJ; Zhao, C; Sykes, DB; Ferrara, SJ; Liu, K; Herbert, SA; Merz, C; Niehues, M; Nising, CF; Schafer, M; Zimmermann, K; Knablein, J; Thede, K; Faupel, T

> <Link to Ligand in BindingDB>
http://www.bindingdb.org/bind/chemsearch/marvin/MolStructure.jsp?monomerid=490623

> <Link to Ligand-Target Pair in BindingDB>
http://www.bindingdb.org/jsp/dbsearch/PrimarySearch_ki.jsp?energyterm=kJ/mole&tag=r21&monomerid=490623&enzyme=Dihydroorotate+dehydrogenase&column=ki&startPg=0&Increment=50&submit=Search

> <PubChem CID>
134474454

> <PubChem SID>
447117349

$$$$

  Mrv2115 07222212352D          

 25 28  0  0  0  0            999 V2000
    3.9934    2.4750    0.0000 O   0  0  0  0  0  0  0  0  0  0  0  0
    3.2789    2.0625    0.0000 C   0  0  0  0  0  0  0  0  0  0  0  0
    2.5645    2.4750    0.0000 O   0  0  0  0  0  0  0  0  0  0  0  0
    3.2789    1.2375    0.0000 C   0  0  0  0  0  0  0  0  0  0  0  0
    3.9934    0.8250    0.0000 C   0  0  0  0  0  0  0  0  0  0  0  0
    3.9934    0.0000    0.0000 C   0  0  0  0  0  0  0  0  0  0  0  0
    3.2789   -0.4125    0.0000 C   0  0  0  0  0  0  0  0  0  0  0  0
    2.5645    0.0000    0.0000 C   0  0  0  0  0  0  0  0  0  0  0  0
    1.7798   -0.2549    0.0000 N   0  0  0  0  0  0  0  0  0  0  0  0
    1.2949    0.4125    0.0000 C   0  0  0  0  0  0  0  0  0  0  0  0
    0.4699    0.4125    0.0000 C   0  0  0  0  0  0  0  0  0  0  0  0
    0.0574   -0.3020    0.0000 C   0  0  0  0  0  0  0  0  0  0  0  0
   -0.7676   -0.3020    0.0000 C   0  0  0  0  0  0  0  0  0  0  0  0
   -1.1801    0.4125    0.0000 C   0  0  0  0  0  0  0  0  0  0  0  0
   -2.0051    0.4125    0.0000 O   0  0  0  0  0  0  0  0  0  0  0  0
   -2.4176    1.1270    0.0000 C   0  0  0  0  0  0  0  0  0  0  0  0
   -3.2426    1.1270    0.0000 C   0  0  0  0  0  0  0  0  0  0  0  0
   -3.6551    1.8414    0.0000 C   0  0  0  0  0  0  0  0  0  0  0  0
   -3.2426    2.5559    0.0000 C   0  0  0  0  0  0  0  0  0  0  0  0
   -2.4176    2.5559    0.0000 C   0  0  0  0  0  0  0  0  0  0  0  0
   -2.0051    1.8414    0.0000 C   0  0  0  0  0  0  0  0  0  0  0  0
   -0.7676    1.1270    0.0000 C   0  0  0  0  0  0  0  0  0  0  0  0
    0.0574    1.1270    0.0000 C   0  0  0  0  0  0  0  0  0  0  0  0
    1.7798    1.0799    0.0000 N   0  0  0  0  0  0  0  0  0  0  0  0
    2.5645    0.8250    0.0000 C   0  0  0  0  0  0  0  0  0  0  0  0
  1  2  2  0  0  0  0
  2  3  1  0  0  0  0
  2  4  1  0  0  0  0
  4  5  4  0  0  0  0
  5  6  4  0  0  0  0
  6  7  4  0  0  0  0
  7  8  4  0  0  0  0
  8  9  4  0  0  0  0
  9 10  4  0  0  0  0
 10 11  1  0  0  0  0
 11 12  4  0  0  0  0
 12 13  4  0  0  0  0
 13 14  4  0  0  0  0
 14 15  1  0  0  0  0
 15 16  1  0  0  0  0
 16 17  4  0  0  0  0
 17 18  4  0  0  0  0
 18 19  4  0  0  0  0
 19 20  4  0  0  0  0
 20 21  4  0  0  0  0
 16 21  4  0  0  0  0
 14 22  4  0  0  0  0
 22 23  4  0  0  0  0
 11 23  4  0  0  0  0
 10 24  4  0  0  0  0
 24 25  4  0  0  0  0
  4 25  4  0  0  0  0
  8 25  4  0  0  0  0
M  STY  1   1 DAT
M  SAL   1  1   9
M  SDT   1 MRV_IMPLICIT_H                                        
M  SDD   1     0.5304   -0.4125    DR    ALL  0       0  
M  SED   1 IMPL_H1
M  END
> <IC50(uM)>
2.87

> <Outcome>
0.0

> <BindingDB ID>
297748

> <BindingDB MonomerID>
155404

> <BindingDB Ligand Name>
US9006454, I10

> <Curation/DataSource>
US Patent

> <Article DOI>
?

> <PMID>
?

> <Patent Number>
US9006454

> <Authors>
Thunuguntla, SS; Subramanya, H; Kunnam, SR; Sanivaru Vijay, SR; Bingi, C; Kusanur, R; Schwarz, M; Arlt, M

> <Link to Ligand in BindingDB>
http://www.bindingdb.org/bind/chemsearch/marvin/MolStructure.jsp?monomerid=155404

> <Link to Ligand-Target Pair in BindingDB>
http://www.bindingdb.org/jsp/dbsearch/PrimarySearch_ki.jsp?energyterm=kJ/mole&tag=r21&monomerid=155404&enzyme=Dihydroorotate+dehydrogenase&column=ki&startPg=0&Increment=50&submit=Search

> <PubChem CID>
46945786

> <PubChem SID>
253658341

$$$$

  Mrv2115 07222212352D          

 28 31  0  0  0  0            999 V2000
    3.9934    2.4750    0.0000 O   0  0  0  0  0  0  0  0  0  0  0  0
    3.2789    2.0625    0.0000 C   0  0  0  0  0  0  0  0  0  0  0  0
    2.5645    2.4750    0.0000 O   0  0  0  0  0  0  0  0  0  0  0  0
    3.2789    1.2375    0.0000 C   0  0  0  0  0  0  0  0  0  0  0  0
    3.9934    0.8250    0.0000 C   0  0  0  0  0  0  0  0  0  0  0  0
    3.9934    0.0000    0.0000 C   0  0  0  0  0  0  0  0  0  0  0  0
    3.2789   -0.4125    0.0000 C   0  0  0  0  0  0  0  0  0  0  0  0
    2.5645    0.0000    0.0000 C   0  0  0  0  0  0  0  0  0  0  0  0
    1.7798   -0.2549    0.0000 N   0  0  0  0  0  0  0  0  0  0  0  0
    1.2949    0.4125    0.0000 C   0  0  0  0  0  0  0  0  0  0  0  0
    0.4699    0.4125    0.0000 C   0  0  0  0  0  0  0  0  0  0  0  0
    0.0574   -0.3020    0.0000 C   0  0  0  0  0  0  0  0  0  0  0  0
    0.4699   -1.0164    0.0000 F   0  0  0  0  0  0  0  0  0  0  0  0
   -0.7676   -0.3020    0.0000 C   0  0  0  0  0  0  0  0  0  0  0  0
   -1.1801   -1.0164    0.0000 F   0  0  0  0  0  0  0  0  0  0  0  0
   -1.1801    0.4125    0.0000 C   0  0  0  0  0  0  0  0  0  0  0  0
   -2.0051    0.4125    0.0000 C   0  0  0  0  0  0  0  0  0  0  0  0
   -2.4176   -0.3020    0.0000 C   0  0  0  0  0  0  0  0  0  0  0  0
   -3.2426   -0.3020    0.0000 C   0  0  0  0  0  0  0  0  0  0  0  0
   -3.6551    0.4125    0.0000 C   0  0  0  0  0  0  0  0  0  0  0  0
   -3.2426    1.1270    0.0000 N   0  0  0  0  0  0  0  0  0  0  0  0
   -2.4176    1.1270    0.0000 C   0  0  0  0  0  0  0  0  0  0  0  0
   -0.7676    1.1270    0.0000 C   0  0  0  0  0  0  0  0  0  0  0  0
   -1.1801    1.8414    0.0000 F   0  0  0  0  0  0  0  0  0  0  0  0
    0.0574    1.1270    0.0000 C   0  0  0  0  0  0  0  0  0  0  0  0
    0.4699    1.8414    0.0000 F   0  0  0  0  0  0  0  0  0  0  0  0
    1.7798    1.0799    0.0000 N   0  0  0  0  0  0  0  0  0  0  0  0
    2.5645    0.8250    0.0000 C   0  0  0  0  0  0  0  0  0  0  0  0
  1  2  2  0  0  0  0
  2  3  1  0  0  0  0
  2  4  1  0  0  0  0
  4  5  4  0  0  0  0
  5  6  4  0  0  0  0
  6  7  4  0  0  0  0
  7  8  4  0  0  0  0
  8  9  4  0  0  0  0
  9 10  4  0  0  0  0
 10 11  1  0  0  0  0
 11 12  4  0  0  0  0
 12 13  1  0  0  0  0
 12 14  4  0  0  0  0
 14 15  1  0  0  0  0
 14 16  4  0  0  0  0
 16 17  1  0  0  0  0
 17 18  4  0  0  0  0
 18 19  4  0  0  0  0
 19 20  4  0  0  0  0
 20 21  4  0  0  0  0
 21 22  4  0  0  0  0
 17 22  4  0  0  0  0
 16 23  4  0  0  0  0
 23 24  1  0  0  0  0
 23 25  4  0  0  0  0
 11 25  4  0  0  0  0
 25 26  1  0  0  0  0
 10 27  4  0  0  0  0
 27 28  4  0  0  0  0
  4 28  4  0  0  0  0
  8 28  4  0  0  0  0
M  STY  1   1 DAT
M  SAL   1  1   9
M  SDT   1 MRV_IMPLICIT_H                                        
M  SDD   1     0.5304   -0.4125    DR    ALL  0       0  
M  SED   1 IMPL_H1
M  END
> <IC50(uM)>
0.282

> <Outcome>
1.0

> <BindingDB ID>
297838

> <BindingDB MonomerID>
155494

> <BindingDB Ligand Name>
US9006454, I136

> <Curation/DataSource>
US Patent

> <Article DOI>
?

> <PMID>
?

> <Patent Number>
US9006454

> <Authors>
Thunuguntla, SS; Subramanya, H; Kunnam, SR; Sanivaru Vijay, SR; Bingi, C; Kusanur, R; Schwarz, M; Arlt, M

> <Link to Ligand in BindingDB>
http://www.bindingdb.org/bind/chemsearch/marvin/MolStructure.jsp?monomerid=155494

> <Link to Ligand-Target Pair in BindingDB>
http://www.bindingdb.org/jsp/dbsearch/PrimarySearch_ki.jsp?energyterm=kJ/mole&tag=r21&monomerid=155494&enzyme=Dihydroorotate+dehydrogenase&column=ki&startPg=0&Increment=50&submit=Search

> <PubChem CID>
58073935

> <PubChem SID>
253658431

$$$$

  Mrv2115 07222212352D          

 28 30  0  0  0  0            999 V2000
    7.8592    1.2375    0.0000 O   0  0  0  0  0  0  0  0  0  0  0  0
    7.8592    0.4125    0.0000 C   0  0  0  0  0  0  0  0  0  0  0  0
    7.1447    0.0000    0.0000 C   0  0  0  0  0  0  0  0  0  0  0  0
    6.4302    0.4125    0.0000 C   0  0  0  0  0  0  0  0  0  0  0  0
    5.7158    0.0000    0.0000 N   0  0  0  0  0  0  0  0  0  0  0  0
    5.0013    0.4125    0.0000 C   0  0  0  0  0  0  0  0  0  0  0  0
    5.0013    1.2375    0.0000 O   0  0  0  0  0  0  0  0  0  0  0  0
    4.2868    0.0000    0.0000 C   0  0  0  0  0  0  0  0  0  0  0  0
    4.2868   -0.8250    0.0000 C   0  0  0  0  0  0  0  0  0  0  0  0
    3.5724   -1.2375    0.0000 C   0  0  0  0  0  0  0  0  0  0  0  0
    2.8579   -0.8250    0.0000 C   0  0  0  0  0  0  0  0  0  0  0  0
    2.1434   -1.2375    0.0000 C   0  0  0  0  0  0  0  0  0  0  0  0
    1.4289   -1.6500    0.0000 F   0  0  0  0  0  0  0  0  0  0  0  0
    2.5559   -1.9520    0.0000 F   0  0  0  0  0  0  0  0  0  0  0  0
    1.7309   -0.5230    0.0000 F   0  0  0  0  0  0  0  0  0  0  0  0
    2.8579    0.0000    0.0000 C   0  0  0  0  0  0  0  0  0  0  0  0
    3.5724    0.4125    0.0000 C   0  0  0  0  0  0  0  0  0  0  0  0
    8.5737    0.0000    0.0000 N   0  0  0  0  0  0  0  0  0  0  0  0
    9.2881    0.4125    0.0000 C   0  0  0  0  0  0  0  0  0  0  0  0
    9.2881    1.2375    0.0000 C   0  0  0  0  0  0  0  0  0  0  0  0
   10.0026    1.6500    0.0000 C   0  0  0  0  0  0  0  0  0  0  0  0
   10.7171    1.2375    0.0000 C   0  0  0  0  0  0  0  0  0  0  0  0
   10.7171    0.4125    0.0000 C   0  0  0  0  0  0  0  0  0  0  0  0
   11.4315    0.0000    0.0000 C   0  0  0  0  0  0  0  0  0  0  0  0
   11.4315   -0.8250    0.0000 C   0  0  0  0  0  0  0  0  0  0  0  0
   10.7171   -1.2375    0.0000 C   0  0  0  0  0  0  0  0  0  0  0  0
   10.0026   -0.8250    0.0000 C   0  0  0  0  0  0  0  0  0  0  0  0
   10.0026    0.0000    0.0000 C   0  0  0  0  0  0  0  0  0  0  0  0
  1  2  2  0  0  0  0
  2  3  1  0  0  0  0
  3  4  1  0  0  0  0
  4  5  1  0  0  0  0
  5  6  1  0  0  0  0
  6  7  2  0  0  0  0
  6  8  1  0  0  0  0
  8  9  4  0  0  0  0
  9 10  4  0  0  0  0
 10 11  4  0  0  0  0
 11 12  1  0  0  0  0
 12 13  1  0  0  0  0
 12 14  1  0  0  0  0
 12 15  1  0  0  0  0
 11 16  4  0  0  0  0
 16 17  4  0  0  0  0
  8 17  4  0  0  0  0
  2 18  1  0  0  0  0
 18 19  1  0  0  0  0
 19 20  1  0  0  0  0
 20 21  1  0  0  0  0
 21 22  1  0  0  0  0
 22 23  1  0  0  0  0
 23 24  4  0  0  0  0
 24 25  4  0  0  0  0
 25 26  4  0  0  0  0
 26 27  4  0  0  0  0
 27 28  4  0  0  0  0
 23 28  4  0  0  0  0
 19 28  1  0  0  0  0
M  END
> <IC50(uM)>
0.91

> <Outcome>
1.0

> <BindingDB ID>
50527783

> <BindingDB MonomerID>
50201627

> <BindingDB Ligand Name>
CHEMBL3184096

> <Curation/DataSource>
ChEMBL

> <Article DOI>
10.1021/acsmedchemlett.6b00316

> <PMID>
27994748

> <Patent Number>
?

> <Authors>
Lewis, TA; Sykes, DB; Law, JM; Mu??oz, B; Rustiguel, JK; Nonato, MC; Scadden, DT; Schreiber, SL

> <Link to Ligand in BindingDB>
http://www.bindingdb.org/bind/chemsearch/marvin/MolStructure.jsp?monomerid=50201627

> <Link to Ligand-Target Pair in BindingDB>
http://www.bindingdb.org/jsp/dbsearch/PrimarySearch_ki.jsp?energyterm=kJ/mole&tag=r21&monomerid=50201627&enzyme=Dihydroorotate+dehydrogenase&column=ki&startPg=0&Increment=50&submit=Search

> <PubChem CID>
71768302

> <PubChem SID>
375979415

$$$$

  Mrv2115 07222212352D          

 25 28  0  0  0  0            999 V2000
    3.9934    2.4750    0.0000 O   0  0  0  0  0  0  0  0  0  0  0  0
    3.2789    2.0625    0.0000 C   0  0  0  0  0  0  0  0  0  0  0  0
    2.5645    2.4750    0.0000 O   0  0  0  0  0  0  0  0  0  0  0  0
    3.2789    1.2375    0.0000 C   0  0  0  0  0  0  0  0  0  0  0  0
    3.9934    0.8250    0.0000 C   0  0  0  0  0  0  0  0  0  0  0  0
    3.9934    0.0000    0.0000 C   0  0  0  0  0  0  0  0  0  0  0  0
    3.2789   -0.4125    0.0000 C   0  0  0  0  0  0  0  0  0  0  0  0
    2.5645    0.0000    0.0000 C   0  0  0  0  0  0  0  0  0  0  0  0
    1.7798   -0.2549    0.0000 N   0  0  0  0  0  0  0  0  0  0  0  0
    1.2949    0.4125    0.0000 C   0  0  0  0  0  0  0  0  0  0  0  0
    0.4699    0.4125    0.0000 C   0  0  0  0  0  0  0  0  0  0  0  0
    0.0574   -0.3020    0.0000 C   0  0  0  0  0  0  0  0  0  0  0  0
   -0.7676   -0.3020    0.0000 C   0  0  0  0  0  0  0  0  0  0  0  0
   -1.1801    0.4125    0.0000 C   0  0  0  0  0  0  0  0  0  0  0  0
   -2.0051    0.4125    0.0000 N   0  0  0  0  0  0  0  0  0  0  0  0
   -2.4176    1.1270    0.0000 C   0  0  0  0  0  0  0  0  0  0  0  0
   -3.2426    1.1270    0.0000 C   0  0  0  0  0  0  0  0  0  0  0  0
   -3.6551    1.8414    0.0000 C   0  0  0  0  0  0  0  0  0  0  0  0
   -3.2426    2.5559    0.0000 C   0  0  0  0  0  0  0  0  0  0  0  0
   -2.4176    2.5559    0.0000 C   0  0  0  0  0  0  0  0  0  0  0  0
   -2.0051    1.8414    0.0000 C   0  0  0  0  0  0  0  0  0  0  0  0
   -0.7676    1.1270    0.0000 C   0  0  0  0  0  0  0  0  0  0  0  0
    0.0574    1.1270    0.0000 C   0  0  0  0  0  0  0  0  0  0  0  0
    1.7798    1.0799    0.0000 N   0  0  0  0  0  0  0  0  0  0  0  0
    2.5645    0.8250    0.0000 C   0  0  0  0  0  0  0  0  0  0  0  0
  1  2  2  0  0  0  0
  2  3  1  0  0  0  0
  2  4  1  0  0  0  0
  4  5  4  0  0  0  0
  5  6  4  0  0  0  0
  6  7  4  0  0  0  0
  7  8  4  0  0  0  0
  8  9  4  0  0  0  0
  9 10  4  0  0  0  0
 10 11  1  0  0  0  0
 11 12  4  0  0  0  0
 12 13  4  0  0  0  0
 13 14  4  0  0  0  0
 14 15  1  0  0  0  0
 15 16  1  0  0  0  0
 16 17  4  0  0  0  0
 17 18  4  0  0  0  0
 18 19  4  0  0  0  0
 19 20  4  0  0  0  0
 20 21  4  0  0  0  0
 16 21  4  0  0  0  0
 14 22  4  0  0  0  0
 22 23  4  0  0  0  0
 11 23  4  0  0  0  0
 10 24  4  0  0  0  0
 24 25  4  0  0  0  0
  4 25  4  0  0  0  0
  8 25  4  0  0  0  0
M  STY  1   1 DAT
M  SAL   1  1   9
M  SDT   1 MRV_IMPLICIT_H                                        
M  SDD   1     0.5304   -0.4125    DR    ALL  0       0  
M  SED   1 IMPL_H1
M  END
> <IC50(uM)>
27.1

> <Outcome>
0.0

> <BindingDB ID>
297773

> <BindingDB MonomerID>
155429

> <BindingDB Ligand Name>
US9006454, I55

> <Curation/DataSource>
US Patent

> <Article DOI>
?

> <PMID>
?

> <Patent Number>
US9006454

> <Authors>
Thunuguntla, SS; Subramanya, H; Kunnam, SR; Sanivaru Vijay, SR; Bingi, C; Kusanur, R; Schwarz, M; Arlt, M

> <Link to Ligand in BindingDB>
http://www.bindingdb.org/bind/chemsearch/marvin/MolStructure.jsp?monomerid=155429

> <Link to Ligand-Target Pair in BindingDB>
http://www.bindingdb.org/jsp/dbsearch/PrimarySearch_ki.jsp?energyterm=kJ/mole&tag=r21&monomerid=155429&enzyme=Dihydroorotate+dehydrogenase&column=ki&startPg=0&Increment=50&submit=Search

> <PubChem CID>
46946984

> <PubChem SID>
253658366

$$$$

  Mrv2115 07222212352D          

 34 36  0  0  0  0            999 V2000
    0.7145   -3.7125    0.0000 C   0  0  0  0  0  0  0  0  0  0  0  0
    1.4289   -4.1250    0.0000 C   0  0  0  0  0  0  0  0  0  0  0  0
    1.4289   -4.9500    0.0000 C   0  0  0  0  0  0  0  0  0  0  0  0
    0.7615   -5.4349    0.0000 N   0  0  0  0  0  0  0  0  0  0  0  0
    1.0164   -6.2195    0.0000 N   0  0  0  0  0  0  0  0  0  0  0  0
    0.5315   -6.8870    0.0000 C   0  0  0  0  0  0  0  0  0  0  0  0
    0.8671   -7.6407    0.0000 C   0  0  0  0  0  0  0  0  0  0  0  0
    0.3822   -8.3081    0.0000 C   0  0  0  0  0  0  0  0  0  0  0  0
    0.7177   -9.0618    0.0000 O   0  0  0  0  0  0  0  0  0  0  0  0
    1.5382   -9.1480    0.0000 C   0  0  0  0  0  0  0  0  0  0  0  0
    2.0231   -8.4806    0.0000 C   0  0  0  0  0  0  0  0  0  0  0  0
    1.8738   -9.9017    0.0000 C   0  0  0  0  0  0  0  0  0  0  0  0
    1.1201  -10.2372    0.0000 F   0  0  0  0  0  0  0  0  0  0  0  0
    2.6274   -9.5661    0.0000 F   0  0  0  0  0  0  0  0  0  0  0  0
    2.2093  -10.6554    0.0000 F   0  0  0  0  0  0  0  0  0  0  0  0
   -0.4383   -8.2219    0.0000 C   0  0  0  0  0  0  0  0  0  0  0  0
   -0.9232   -8.8893    0.0000 C   0  0  0  0  0  0  0  0  0  0  0  0
   -1.7437   -8.8031    0.0000 O   0  0  0  0  0  0  0  0  0  0  0  0
   -0.5877   -9.6430    0.0000 N   0  0  0  0  0  0  0  0  0  0  0  0
   -1.0726  -10.3104    0.0000 C   0  0  0  0  0  0  0  0  0  0  0  0
   -0.7371  -11.0641    0.0000 C   0  0  0  0  0  0  0  0  0  0  0  0
   -1.2220  -11.7315    0.0000 C   0  0  0  0  0  0  0  0  0  0  0  0
   -2.0425  -11.6453    0.0000 C   0  0  0  0  0  0  0  0  0  0  0  0
   -2.5274  -12.3127    0.0000 F   0  0  0  0  0  0  0  0  0  0  0  0
   -2.3780  -10.8916    0.0000 C   0  0  0  0  0  0  0  0  0  0  0  0
   -1.8931  -10.2242    0.0000 C   0  0  0  0  0  0  0  0  0  0  0  0
   -2.2287   -9.4705    0.0000 C   0  0  0  0  0  0  0  0  0  0  0  0
   -0.7739   -7.4682    0.0000 C   0  0  0  0  0  0  0  0  0  0  0  0
   -0.2890   -6.8007    0.0000 C   0  0  0  0  0  0  0  0  0  0  0  0
   -0.6245   -6.0471    0.0000 F   0  0  0  0  0  0  0  0  0  0  0  0
    1.8414   -6.2195    0.0000 C   0  0  0  0  0  0  0  0  0  0  0  0
    2.3264   -6.8870    0.0000 O   0  0  0  0  0  0  0  0  0  0  0  0
    2.0964   -5.4349    0.0000 N   0  0  0  0  0  0  0  0  0  0  0  0
    2.8810   -5.1800    0.0000 C   0  0  0  0  0  0  0  0  0  0  0  0
  1  2  1  0  0  0  0
  2  3  1  0  0  0  0
  3  4  4  0  0  0  0
  4  5  4  0  0  0  0
  5  6  1  0  0  0  0
  6  7  4  0  0  0  0
  7  8  4  0  0  0  0
  8  9  1  0  0  0  0
  9 10  1  0  0  0  0
 10 11  1  0  0  0  0
 10 12  1  0  0  0  0
 12 13  1  0  0  0  0
 12 14  1  0  0  0  0
 12 15  1  0  0  0  0
  8 16  4  0  0  0  0
 16 17  1  0  0  0  0
 17 18  2  0  0  0  0
 17 19  1  0  0  0  0
 19 20  1  0  0  0  0
 20 21  4  0  0  0  0
 21 22  4  0  0  0  0
 22 23  4  0  0  0  0
 23 24  1  0  0  0  0
 23 25  4  0  0  0  0
 25 26  4  0  0  0  0
 20 26  4  0  0  0  0
 26 27  1  0  0  0  0
 16 28  4  0  0  0  0
 28 29  4  0  0  0  0
  6 29  4  0  0  0  0
 29 30  1  0  0  0  0
  5 31  4  0  0  0  0
 31 32  2  0  0  0  0
 31 33  4  0  0  0  0
  3 33  4  0  0  0  0
 33 34  1  0  0  0  0
M  END
> <IC50(uM)>
0.0265

> <Outcome>
1.0

> <BindingDB ID>
972538; 1098692

> <BindingDB MonomerID>
470413

> <BindingDB Ligand Name>
4-(3-ethyl-4-methyl-5-oxo-4,5-dihydro-1H-1,2,4-triazol-1-yl)-5-fluoro-N-(4-fluoro-2-methyl-phenyl)-2-{[(2S)-1,1,1-trifluoropropan-2-yl]oxy}benzamide::US10815215, Example 72; 4-(3-ethyl-4-methyl-5-oxo-4,5-dihydro-1H-1,2,4-triazol-1-yl)-5-fluoro-N-(4-fluoro-2-methyl-phenyl)-2-{[(2S)-1,1,1-trifluoropropan-2-yl]oxy}benzamide::US10815215, Example 72::US11130745, Example 72

> <Curation/DataSource>
US Patent

> <Article DOI>
?

> <PMID>
?

> <Patent Number>
US10815215; US11130745

> <Authors>
Gradl, SN; Nguyen, D; Eis, K; Gunther, J; Stellfeld, T; Janzer, A; Christian, S; Muller, T; Sheikh, SE; Zhou, HJ; Zhao, C; Sykes, DB; Ferrara, SJ; Liu, K; Krober, M; Merz, C; Niehues, M; Schafer, M; Zimmermann, K; Nising, CF; Gradl, SN; Nguyen, D; Eis, K; Gunther, J; Stellfeld, T; Janzer, A; Christian, S; Muller, T; Sheikh, SE; Sykes, DB; Ferrara, SJ; Krober, M; Merz, C; Niehues, M; Schafer, M; Zimmermann, K; Nising, CF

> <Link to Ligand in BindingDB>
http://www.bindingdb.org/bind/chemsearch/marvin/MolStructure.jsp?monomerid=470413

> <Link to Ligand-Target Pair in BindingDB>
http://www.bindingdb.org/jsp/dbsearch/PrimarySearch_ki.jsp?energyterm=kJ/mole&tag=r21&monomerid=470413&enzyme=Dihydroorotate+dehydrogenase&column=ki&startPg=0&Increment=50&submit=Search

> <PubChem CID>
134470162

> <PubChem SID>
441609590

$$$$

  Mrv2115 07222212352D          

 24 26  0  0  0  0            999 V2000
    2.0367    0.3509    0.0000 N   0  0  0  0  0  0  0  0  0  0  0  0
    2.0367   -0.4741    0.0000 C   0  0  0  0  0  0  0  0  0  0  0  0
    2.0367   -1.2991    0.0000 C   0  0  0  0  0  0  0  0  0  0  0  0
    2.7041   -1.7840    0.0000 C   0  0  0  0  0  0  0  0  0  0  0  0
    3.4888   -1.5291    0.0000 C   0  0  0  0  0  0  0  0  0  0  0  0
    3.6603   -0.7221    0.0000 C   0  0  0  0  0  0  0  0  0  0  0  0
    4.4449   -0.4672    0.0000 C   0  0  0  0  0  0  0  0  0  0  0  0
    5.0580   -1.0192    0.0000 C   0  0  0  0  0  0  0  0  0  0  0  0
    4.8865   -1.8262    0.0000 N   0  0  0  0  0  0  0  0  0  0  0  0
    4.1019   -2.0811    0.0000 C   0  0  0  0  0  0  0  0  0  0  0  0
    2.4492   -2.5687    0.0000 N   0  0  0  0  0  0  0  0  0  0  0  0
    1.6242   -2.5687    0.0000 N   0  0  0  0  0  0  0  0  0  0  0  0
    1.3693   -1.7840    0.0000 C   0  0  0  0  0  0  0  0  0  0  0  0
    0.5846   -1.5291    0.0000 N   0  0  0  0  0  0  0  0  0  0  0  0
    0.4131   -0.7221    0.0000 C   0  0  0  0  0  0  0  0  0  0  0  0
   -0.3715   -0.4672    0.0000 C   0  0  0  0  0  0  0  0  0  0  0  0
   -0.5430    0.3398    0.0000 C   0  0  0  0  0  0  0  0  0  0  0  0
    0.0701    0.8918    0.0000 C   0  0  0  0  0  0  0  0  0  0  0  0
   -0.1015    1.6988    0.0000 C   0  0  0  0  0  0  0  0  0  0  0  0
   -0.2730    2.5058    0.0000 F   0  0  0  0  0  0  0  0  0  0  0  0
    0.7055    1.8703    0.0000 F   0  0  0  0  0  0  0  0  0  0  0  0
   -0.9084    1.5273    0.0000 F   0  0  0  0  0  0  0  0  0  0  0  0
    0.8547    0.6369    0.0000 C   0  0  0  0  0  0  0  0  0  0  0  0
    1.0262   -0.1701    0.0000 C   0  0  0  0  0  0  0  0  0  0  0  0
  1  2  3  0  0  0  0
  2  3  1  0  0  0  0
  3  4  4  0  0  0  0
  4  5  1  0  0  0  0
  5  6  4  0  0  0  0
  6  7  4  0  0  0  0
  7  8  4  0  0  0  0
  8  9  4  0  0  0  0
  9 10  4  0  0  0  0
  5 10  4  0  0  0  0
  4 11  4  0  0  0  0
 11 12  4  0  0  0  0
 12 13  4  0  0  0  0
  3 13  4  0  0  0  0
 13 14  1  0  0  0  0
 14 15  1  0  0  0  0
 15 16  4  0  0  0  0
 16 17  4  0  0  0  0
 17 18  4  0  0  0  0
 18 19  1  0  0  0  0
 19 20  1  0  0  0  0
 19 21  1  0  0  0  0
 19 22  1  0  0  0  0
 18 23  4  0  0  0  0
 23 24  4  0  0  0  0
 15 24  4  0  0  0  0
M  STY  1   1 DAT
M  SAL   1  1  12
M  SDT   1 MRV_IMPLICIT_H                                        
M  SDD   1     0.5304   -0.4125    DR    ALL  0       0  
M  SED   1 IMPL_H1
M  END
> <IC50(uM)>
50.0

> <Outcome>
0.0

> <BindingDB ID>
50786767

> <BindingDB MonomerID>
50066592

> <BindingDB Ligand Name>
5-Pyridin-3-yl-3-(4-trifluoromethyl-phenylamino)-1H-pyrazole-4-carbonitrile::CHEMBL118647

> <Curation/DataSource>
ChEMBL

> <Article DOI>
10.1021/jm981028c

> <PMID>
9719606

> <Patent Number>
?

> <Authors>
Papageorgiou, C; Albert, R; Floersheim, P; Lemaire, M; Bitch, F; Weber, HP; Andersen, E; Hungerford, V; Schreier, MH

> <Link to Ligand in BindingDB>
http://www.bindingdb.org/bind/chemsearch/marvin/MolStructure.jsp?monomerid=50066592

> <Link to Ligand-Target Pair in BindingDB>
http://www.bindingdb.org/jsp/dbsearch/PrimarySearch_ki.jsp?energyterm=kJ/mole&tag=r21&monomerid=50066592&enzyme=Dihydroorotate+dehydrogenase&column=ki&startPg=0&Increment=50&submit=Search

> <PubChem CID>
10544308

> <PubChem SID>
103961212

$$$$

  Mrv2115 07222212352D          

 39 43  0  0  0  0            999 V2000
   -1.8659    1.4455    0.0000 C   0  0  0  0  0  0  0  0  0  0  0  0
   -2.6909    1.4455    0.0000 C   0  0  0  0  0  0  0  0  0  0  0  0
   -3.1034    0.7310    0.0000 O   0  0  0  0  0  0  0  0  0  0  0  0
   -2.6909    0.0165    0.0000 C   0  0  0  0  0  0  0  0  0  0  0  0
   -1.8659    0.0165    0.0000 C   0  0  0  0  0  0  0  0  0  0  0  0
   -1.4534   -0.6979    0.0000 C   0  0  0  0  0  0  0  0  0  0  0  0
   -0.6284   -0.6979    0.0000 N   0  0  0  0  0  0  0  0  0  0  0  0
   -0.1435   -1.3654    0.0000 N   0  0  0  0  0  0  0  0  0  0  0  0
    0.6411   -1.1104    0.0000 C   0  0  0  0  0  0  0  0  0  0  0  0
    0.6411   -0.2854    0.0000 N   0  0  0  0  0  0  0  0  0  0  0  0
   -0.1435   -0.0305    0.0000 C   0  0  0  0  0  0  0  0  0  0  0  0
   -0.3984    0.7541    0.0000 O   0  0  0  0  0  0  0  0  0  0  0  0
    1.3556    0.1271    0.0000 C   0  0  0  0  0  0  0  0  0  0  0  0
    2.0701   -0.2854    0.0000 C   0  0  0  0  0  0  0  0  0  0  0  0
    2.0701   -1.1104    0.0000 C   0  0  0  0  0  0  0  0  0  0  0  0
    1.3556   -1.5229    0.0000 C   0  0  0  0  0  0  0  0  0  0  0  0
   -1.8659   -1.4124    0.0000 C   0  0  0  0  0  0  0  0  0  0  0  0
   -1.4534   -2.1269    0.0000 F   0  0  0  0  0  0  0  0  0  0  0  0
   -2.6909   -1.4124    0.0000 C   0  0  0  0  0  0  0  0  0  0  0  0
   -3.1034   -0.6979    0.0000 C   0  0  0  0  0  0  0  0  0  0  0  0
   -3.9284   -0.6979    0.0000 C   0  0  0  0  0  0  0  0  0  0  0  0
   -4.3409    0.0165    0.0000 O   0  0  0  0  0  0  0  0  0  0  0  0
   -4.3409   -1.4124    0.0000 N   0  0  0  0  0  0  0  0  0  0  0  0
   -3.9284   -2.1269    0.0000 C   0  0  0  0  0  0  0  0  0  0  0  0
   -3.1034   -2.1269    0.0000 C   0  0  0  0  0  0  0  0  0  0  0  0
   -2.6909   -2.8414    0.0000 C   0  0  0  0  0  0  0  0  0  0  0  0
   -3.1034   -3.5558    0.0000 N   0  0  0  0  0  0  0  0  0  0  0  0
   -2.6909   -4.2703    0.0000 S   0  0  0  0  0  0  0  0  0  0  0  0
   -2.2784   -4.9848    0.0000 C   0  0  0  0  0  0  0  0  0  0  0  0
   -3.4054   -4.6828    0.0000 O   0  0  0  0  0  0  0  0  0  0  0  0
   -1.9765   -3.8578    0.0000 O   0  0  0  0  0  0  0  0  0  0  0  0
   -3.9284   -3.5558    0.0000 C   0  0  0  0  0  0  0  0  0  0  0  0
   -4.3409   -2.8414    0.0000 C   0  0  0  0  0  0  0  0  0  0  0  0
   -3.1034    2.1599    0.0000 C   0  0  0  0  0  0  0  0  0  0  0  0
   -3.9284    2.1599    0.0000 C   0  0  0  0  0  0  0  0  0  0  0  0
   -4.3409    2.8744    0.0000 C   0  0  0  0  0  0  0  0  0  0  0  0
   -3.9284    3.5889    0.0000 C   0  0  0  0  0  0  0  0  0  0  0  0
   -3.1034    3.5889    0.0000 C   0  0  0  0  0  0  0  0  0  0  0  0
   -2.6909    2.8744    0.0000 C   0  0  0  0  0  0  0  0  0  0  0  0
  1  2  1  0  0  0  0
  2  3  1  0  0  0  0
  3  4  1  0  0  0  0
  4  5  4  0  0  0  0
  5  6  4  0  0  0  0
  6  7  1  0  0  0  0
  7  8  4  0  0  0  0
  8  9  4  0  0  0  0
  9 10  4  0  0  0  0
 10 11  4  0  0  0  0
  7 11  4  0  0  0  0
 11 12  2  0  0  0  0
 10 13  1  0  0  0  0
 13 14  1  0  0  0  0
 14 15  1  0  0  0  0
 15 16  1  0  0  0  0
  9 16  1  0  0  0  0
  6 17  4  0  0  0  0
 17 18  1  0  0  0  0
 17 19  4  0  0  0  0
 19 20  4  0  0  0  0
  4 20  4  0  0  0  0
 20 21  1  0  0  0  0
 21 22  2  0  0  0  0
 21 23  1  0  0  0  0
 23 24  1  0  0  0  0
 24 25  1  0  0  0  0
 25 26  1  0  0  0  0
 26 27  1  0  0  0  0
 27 28  1  0  0  0  0
 28 29  1  0  0  0  0
 28 30  2  0  0  0  0
 28 31  2  0  0  0  0
 27 32  1  0  0  0  0
 32 33  1  0  0  0  0
 24 33  1  0  0  0  0
  2 34  1  0  0  0  0
 34 35  1  0  0  0  0
 35 36  1  0  0  0  0
 36 37  1  0  0  0  0
 37 38  1  0  0  0  0
 38 39  1  0  0  0  0
 34 39  1  0  0  0  0
M  END
> <IC50(uM)>
0.025

> <Outcome>
1.0

> <BindingDB ID>
1020504

> <BindingDB MonomerID>
490452

> <BindingDB Ligand Name>
2-[(1S)-1-cyclohexylethoxy]-5-fluoro-N-[1-(methylsulfonyl)piperidin-4-yl]-4-(3-oxo-5,6,7,8-tetrahydro[1,2,4]triazolo[4,3-a]pyridin-2(3H)-yl)benzamide::US10968216, Example 120

> <Curation/DataSource>
US Patent

> <Article DOI>
?

> <PMID>
?

> <Patent Number>
US10968216

> <Authors>
Gradl, SN; Nguyen, D; Eis, K; Gunther, J; Stellfeld, T; Janzer, A; Christian, S; Mueller, T; Sheikh, SE; Zhou, HJ; Zhao, C; Sykes, DB; Ferrara, SJ; Liu, K; Herbert, SA; Merz, C; Niehues, M; Nising, CF; Schafer, M; Zimmermann, K; Knablein, J; Thede, K; Faupel, T

> <Link to Ligand in BindingDB>
http://www.bindingdb.org/bind/chemsearch/marvin/MolStructure.jsp?monomerid=490452

> <Link to Ligand-Target Pair in BindingDB>
http://www.bindingdb.org/jsp/dbsearch/PrimarySearch_ki.jsp?energyterm=kJ/mole&tag=r21&monomerid=490452&enzyme=Dihydroorotate+dehydrogenase&column=ki&startPg=0&Increment=50&submit=Search

> <PubChem CID>
134474138

> <PubChem SID>
447117179

$$$$

  Mrv2115 07222212352D          

 24 26  0  0  0  0            999 V2000
    1.8409   -1.9019    0.0000 C   0  0  0  0  0  0  0  0  0  0  0  0
    2.6256   -1.6470    0.0000 C   0  0  0  0  0  0  0  0  0  0  0  0
    2.8805   -0.8624    0.0000 C   0  0  0  0  0  0  0  0  0  0  0  0
    2.3956   -0.1949    0.0000 C   0  0  0  0  0  0  0  0  0  0  0  0
    1.5751   -0.2812    0.0000 O   0  0  0  0  0  0  0  0  0  0  0  0
    2.7311    0.5587    0.0000 C   0  0  0  0  0  0  0  0  0  0  0  0
    2.2462    1.2262    0.0000 C   0  0  0  0  0  0  0  0  0  0  0  0
    2.5818    1.9799    0.0000 C   0  0  0  0  0  0  0  0  0  0  0  0
    3.4023    2.0661    0.0000 C   0  0  0  0  0  0  0  0  0  0  0  0
    3.7378    2.8198    0.0000 C   0  0  0  0  0  0  0  0  0  0  0  0
    4.0734    3.5734    0.0000 F   0  0  0  0  0  0  0  0  0  0  0  0
    2.9841    3.1553    0.0000 F   0  0  0  0  0  0  0  0  0  0  0  0
    4.4915    2.4842    0.0000 F   0  0  0  0  0  0  0  0  0  0  0  0
    3.8872    1.3987    0.0000 N   0  0  0  0  0  0  0  0  0  0  0  0
    3.5516    0.6450    0.0000 C   0  0  0  0  0  0  0  0  0  0  0  0
    3.7055   -0.8624    0.0000 C   0  0  0  0  0  0  0  0  0  0  0  0
    3.9604   -1.6470    0.0000 N   0  0  0  0  0  0  0  0  0  0  0  0
    3.2930   -2.1319    0.0000 C   0  0  0  0  0  0  0  0  0  0  0  0
    3.2930   -2.9569    0.0000 C   0  0  0  0  0  0  0  0  0  0  0  0
    2.5785   -3.3694    0.0000 O   0  0  0  0  0  0  0  0  0  0  0  0
    4.0075   -3.3694    0.0000 N   0  0  0  0  0  0  0  0  0  0  0  0
    4.0075   -4.1944    0.0000 C   0  0  0  0  0  0  0  0  0  0  0  0
    4.4200   -4.9089    0.0000 C   0  0  0  0  0  0  0  0  0  0  0  0
    3.5950   -4.9089    0.0000 C   0  0  0  0  0  0  0  0  0  0  0  0
  1  2  1  0  0  0  0
  2  3  4  0  0  0  0
  3  4  1  0  0  0  0
  4  5  1  0  0  0  0
  4  6  1  0  0  0  0
  6  7  4  0  0  0  0
  7  8  4  0  0  0  0
  8  9  4  0  0  0  0
  9 10  1  0  0  0  0
 10 11  1  0  0  0  0
 10 12  1  0  0  0  0
 10 13  1  0  0  0  0
  9 14  4  0  0  0  0
 14 15  4  0  0  0  0
  6 15  4  0  0  0  0
  3 16  4  0  0  0  0
 16 17  4  0  0  0  0
 17 18  4  0  0  0  0
  2 18  4  0  0  0  0
 18 19  1  0  0  0  0
 19 20  2  0  0  0  0
 19 21  1  0  0  0  0
 21 22  1  0  0  0  0
 22 23  1  0  0  0  0
 23 24  1  0  0  0  0
 22 24  1  0  0  0  0
M  STY  1   1 DAT
M  SAL   1  1  17
M  SDT   1 MRV_IMPLICIT_H                                        
M  SDD   1     0.5304   -0.4125    DR    ALL  0       0  
M  SED   1 IMPL_H1
M  END
> <IC50(uM)>
100.0

> <Outcome>
0.0

> <BindingDB ID>
51330115

> <BindingDB MonomerID>
50538363

> <BindingDB Ligand Name>
CHEMBL4649411

> <Curation/DataSource>
ChEMBL

> <Article DOI>
10.1021/acs.jmedchem.0c00311

> <PMID>
32248693

> <Patent Number>
?

> <Authors>
Kokkonda, S; Deng, X; White, KL; El Mazouni, F; White, J; Shackleford, DM; Katneni, K; Chiu, FCK; Barker, H; McLaren, J; Crighton, E; Chen, G; Angulo-Barturen, I; Jimenez-Diaz, MB; Ferrer, S; Huertas-Valentin, L; Martinez-Martinez, MS; Lafuente-Monasterio, MJ; Chittimalla, R; Shahi, SP; Wittlin, S; Waterson, D; Burrows, JN; Matthews, D; Tomchick, D; Rathod, PK; Palmer, MJ; Charman, SA; Phillips, MA

> <Link to Ligand in BindingDB>
http://www.bindingdb.org/bind/chemsearch/marvin/MolStructure.jsp?monomerid=50538363

> <Link to Ligand-Target Pair in BindingDB>
http://www.bindingdb.org/jsp/dbsearch/PrimarySearch_ki.jsp?energyterm=kJ/mole&tag=r21&monomerid=50538363&enzyme=Dihydroorotate+dehydrogenase&column=ki&startPg=0&Increment=50&submit=Search

> <PubChem CID>
156022029

> <PubChem SID>
442139926

$$$$

  Mrv2115 07222212352D          

 26 29  0  0  0  0            999 V2000
    3.9934    5.7750    0.0000 C   0  0  0  0  0  0  0  0  0  0  0  0
    3.9934    4.9500    0.0000 C   0  0  0  0  0  0  0  0  0  0  0  0
    4.7079    4.5375    0.0000 C   0  0  0  0  0  0  0  0  0  0  0  0
    4.7079    3.7125    0.0000 C   0  0  0  0  0  0  0  0  0  0  0  0
    3.9934    3.3000    0.0000 C   0  0  0  0  0  0  0  0  0  0  0  0
    3.9934    2.4750    0.0000 C   0  0  0  0  0  0  0  0  0  0  0  0
    4.7079    2.0625    0.0000 O   0  0  0  0  0  0  0  0  0  0  0  0
    3.2789    2.0625    0.0000 N   0  0  0  0  0  0  0  0  0  0  0  0
    3.2789    1.2375    0.0000 C   0  0  0  0  0  0  0  0  0  0  0  0
    3.9934    0.8250    0.0000 C   0  0  0  0  0  0  0  0  0  0  0  0
    3.9934    0.0000    0.0000 C   0  0  0  0  0  0  0  0  0  0  0  0
    3.2789   -0.4125    0.0000 C   0  0  0  0  0  0  0  0  0  0  0  0
    2.5645    0.0000    0.0000 C   0  0  0  0  0  0  0  0  0  0  0  0
    2.5645    0.8250    0.0000 C   0  0  0  0  0  0  0  0  0  0  0  0
    1.7798    1.0799    0.0000 C   0  0  0  0  0  0  0  0  0  0  0  0
    1.2949    0.4125    0.0000 N   0  0  0  0  0  0  0  0  0  0  0  0
    1.7798   -0.2549    0.0000 N   0  0  0  0  0  0  0  0  0  0  0  0
    1.5249   -1.0396    0.0000 C   0  0  0  0  0  0  0  0  0  0  0  0
    2.0769   -1.6527    0.0000 C   0  0  0  0  0  0  0  0  0  0  0  0
    1.8220   -2.4373    0.0000 C   0  0  0  0  0  0  0  0  0  0  0  0
    1.0150   -2.6088    0.0000 C   0  0  0  0  0  0  0  0  0  0  0  0
    0.4630   -1.9957    0.0000 C   0  0  0  0  0  0  0  0  0  0  0  0
    0.7179   -1.2111    0.0000 C   0  0  0  0  0  0  0  0  0  0  0  0
    0.1659   -0.5980    0.0000 F   0  0  0  0  0  0  0  0  0  0  0  0
    3.2789    3.7125    0.0000 N   0  0  0  0  0  0  0  0  0  0  0  0
    3.2789    4.5375    0.0000 C   0  0  0  0  0  0  0  0  0  0  0  0
  1  2  1  0  0  0  0
  2  3  4  0  0  0  0
  3  4  4  0  0  0  0
  4  5  4  0  0  0  0
  5  6  1  0  0  0  0
  6  7  2  0  0  0  0
  6  8  1  0  0  0  0
  8  9  1  0  0  0  0
  9 10  1  0  0  0  0
 10 11  1  0  0  0  0
 11 12  1  0  0  0  0
 12 13  1  0  0  0  0
 13 14  4  0  0  0  0
  9 14  1  0  0  0  0
 14 15  4  0  0  0  0
 15 16  4  0  0  0  0
 16 17  4  0  0  0  0
 13 17  4  0  0  0  0
 17 18  1  0  0  0  0
 18 19  4  0  0  0  0
 19 20  4  0  0  0  0
 20 21  4  0  0  0  0
 21 22  4  0  0  0  0
 22 23  4  0  0  0  0
 18 23  4  0  0  0  0
 23 24  1  0  0  0  0
  5 25  4  0  0  0  0
 25 26  4  0  0  0  0
  2 26  4  0  0  0  0
M  END
> <IC50(uM)>
0.0665

> <Outcome>
1.0

> <BindingDB ID>
51334942; 993109

> <BindingDB MonomerID>
477611

> <BindingDB Ligand Name>
N-[(4R)-1-(2-fluorophenyl)-4,5,6,7-tetrahydro-1H-indazol-4-yl]-5-methylpyridine-2-carboxamide::US10889564, Example 41

> <Curation/DataSource>
ChEMBL; US Patent

> <Article DOI>
10.1021/acs.jmedchem.9b01658; ?

> <PMID>
32212728; ?

> <Patent Number>
?; US10889564

> <Authors>
Popova, G; Ladds, MJGW; Johansson, L; Saleh, A; Larsson, J; Sandberg, L; Sahlberg, SH; Qian, W; Gullberg, H; Garg, N; Gustavsson, AL; Haraldsson, M; Lane, D; Yngve, U; Lain, S; Lain, S; Drummond, C; Leeuwen, IV; Haraldsson, M; Johansson, L; Sandberg, L; Yngve, U

> <Link to Ligand in BindingDB>
http://www.bindingdb.org/bind/chemsearch/marvin/MolStructure.jsp?monomerid=477611

> <Link to Ligand-Target Pair in BindingDB>
http://www.bindingdb.org/jsp/dbsearch/PrimarySearch_ki.jsp?energyterm=kJ/mole&tag=r21&monomerid=477611&enzyme=Dihydroorotate+dehydrogenase&column=ki&startPg=0&Increment=50&submit=Search

> <PubChem CID>
129104732

> <PubChem SID>
442137228

$$$$

  Mrv2115 07222212352D          

 36 38  0  0  0  0            999 V2000
   -1.4289    8.0036    0.0000 C   0  0  0  0  0  0  0  0  0  0  0  0
   -0.7145    8.4161    0.0000 C   0  0  0  0  0  0  0  0  0  0  0  0
   -0.7145    9.2411    0.0000 C   0  0  0  0  0  0  0  0  0  0  0  0
   -0.0000    9.6536    0.0000 C   0  0  0  0  0  0  0  0  0  0  0  0
    0.7145    9.2411    0.0000 C   0  0  0  0  0  0  0  0  0  0  0  0
    0.7145    8.4161    0.0000 C   0  0  0  0  0  0  0  0  0  0  0  0
    1.4289    8.0036    0.0000 F   0  0  0  0  0  0  0  0  0  0  0  0
   -0.0000    8.0036    0.0000 C   0  0  0  0  0  0  0  0  0  0  0  0
   -0.0000    7.1786    0.0000 N   0  0  0  0  0  0  0  0  0  0  0  0
    0.7145    6.7661    0.0000 C   0  0  0  0  0  0  0  0  0  0  0  0
    1.4289    7.1786    0.0000 O   0  0  0  0  0  0  0  0  0  0  0  0
    0.7145    5.9411    0.0000 C   0  0  0  0  0  0  0  0  0  0  0  0
    1.4289    5.5286    0.0000 C   0  0  0  0  0  0  0  0  0  0  0  0
    1.4289    4.7036    0.0000 C   0  0  0  0  0  0  0  0  0  0  0  0
    2.1434    4.2911    0.0000 F   0  0  0  0  0  0  0  0  0  0  0  0
    0.7145    4.2911    0.0000 C   0  0  0  0  0  0  0  0  0  0  0  0
    0.7145    3.4661    0.0000 N   0  0  0  0  0  0  0  0  0  0  0  0
    0.0470    2.9812    0.0000 N   0  0  0  0  0  0  0  0  0  0  0  0
    0.3020    2.1965    0.0000 C   0  0  0  0  0  0  0  0  0  0  0  0
   -0.1830    1.5291    0.0000 C   0  0  0  0  0  0  0  0  0  0  0  0
   -0.6679    0.8617    0.0000 C   0  0  0  0  0  0  0  0  0  0  0  0
   -0.8504    2.0140    0.0000 C   0  0  0  0  0  0  0  0  0  0  0  0
    0.4845    1.0442    0.0000 O   0  0  0  0  0  0  0  0  0  0  0  0
    1.1270    2.1965    0.0000 N   0  0  0  0  0  0  0  0  0  0  0  0
    1.6119    1.5291    0.0000 C   0  0  0  0  0  0  0  0  0  0  0  0
    1.3819    2.9812    0.0000 C   0  0  0  0  0  0  0  0  0  0  0  0
    2.1665    3.2361    0.0000 O   0  0  0  0  0  0  0  0  0  0  0  0
    0.0000    4.7036    0.0000 C   0  0  0  0  0  0  0  0  0  0  0  0
   -0.0000    5.5286    0.0000 C   0  0  0  0  0  0  0  0  0  0  0  0
   -0.7145    5.9411    0.0000 O   0  0  0  0  0  0  0  0  0  0  0  0
   -1.4289    5.5286    0.0000 C   0  0  0  0  0  0  0  0  0  0  0  0
   -1.4289    4.7036    0.0000 C   0  0  0  0  0  0  0  0  0  0  0  0
   -2.1434    5.9411    0.0000 C   0  0  0  0  0  0  0  0  0  0  0  0
   -1.7309    6.6555    0.0000 F   0  0  0  0  0  0  0  0  0  0  0  0
   -2.5559    5.2266    0.0000 F   0  0  0  0  0  0  0  0  0  0  0  0
   -2.8579    6.3536    0.0000 F   0  0  0  0  0  0  0  0  0  0  0  0
  1  2  1  0  0  0  0
  2  3  4  0  0  0  0
  3  4  4  0  0  0  0
  4  5  4  0  0  0  0
  5  6  4  0  0  0  0
  6  7  1  0  0  0  0
  6  8  4  0  0  0  0
  2  8  4  0  0  0  0
  8  9  1  0  0  0  0
  9 10  1  0  0  0  0
 10 11  2  0  0  0  0
 10 12  1  0  0  0  0
 12 13  4  0  0  0  0
 13 14  4  0  0  0  0
 14 15  1  0  0  0  0
 14 16  4  0  0  0  0
 16 17  1  0  0  0  0
 17 18  4  0  0  0  0
 18 19  4  0  0  0  0
 19 20  1  0  0  0  0
 20 21  1  0  0  0  0
 20 22  1  0  0  0  0
 20 23  1  0  0  0  0
 19 24  4  0  0  0  0
 24 25  1  0  0  0  0
 24 26  4  0  0  0  0
 17 26  4  0  0  0  0
 26 27  2  0  0  0  0
 16 28  4  0  0  0  0
 28 29  4  0  0  0  0
 12 29  4  0  0  0  0
 29 30  1  0  0  0  0
 30 31  1  0  0  0  0
 31 32  1  0  0  0  0
 31 33  1  0  0  0  0
 33 34  1  0  0  0  0
 33 35  1  0  0  0  0
 33 36  1  0  0  0  0
M  END
> <IC50(uM)>
0.0055

> <Outcome>
1.0

> <BindingDB ID>
1098741; 972587

> <BindingDB MonomerID>
470463

> <BindingDB Ligand Name>
5-fluoro-N-(2-fluoro-6-methylphenyl)-4-[3-(2-hydroxypropan-2-yl)-4-methyl-5-oxo-4,5-dihydro-1H-1,2,4-triazol-1-yl]-2-{[(2S)-1,1,1-trifluoropropan-2-yl]oxy}benzamide::US10815215, Example 129::US11130745, Example 129; 5-fluoro-N-(2-fluoro-6-methylphenyl)-4-[3-(2-hydroxypropan-2-yl)-4-methyl-5-oxo-4,5-dihydro-1H-1,2,4-triazol-1-yl]-2-{[(2S)-1,1,1-trifluoropropan-2-yl]oxy}benzamide::US10815215, Example 129

> <Curation/DataSource>
US Patent

> <Article DOI>
?

> <PMID>
?

> <Patent Number>
US11130745; US10815215

> <Authors>
Gradl, SN; Nguyen, D; Eis, K; Gunther, J; Stellfeld, T; Janzer, A; Christian, S; Muller, T; Sheikh, SE; Sykes, DB; Ferrara, SJ; Krober, M; Merz, C; Niehues, M; Schafer, M; Zimmermann, K; Nising, CF; Gradl, SN; Nguyen, D; Eis, K; Gunther, J; Stellfeld, T; Janzer, A; Christian, S; Muller, T; Sheikh, SE; Zhou, HJ; Zhao, C; Sykes, DB; Ferrara, SJ; Liu, K; Krober, M; Merz, C; Niehues, M; Schafer, M; Zimmermann, K; Nising, CF

> <Link to Ligand in BindingDB>
http://www.bindingdb.org/bind/chemsearch/marvin/MolStructure.jsp?monomerid=470463

> <Link to Ligand-Target Pair in BindingDB>
http://www.bindingdb.org/jsp/dbsearch/PrimarySearch_ki.jsp?energyterm=kJ/mole&tag=r21&monomerid=470463&enzyme=Dihydroorotate+dehydrogenase&column=ki&startPg=0&Increment=50&submit=Search

> <PubChem CID>
134470263

> <PubChem SID>
441609640

$$$$

  Mrv2115 07222212352D          

 26 28  0  0  0  0            999 V2000
   -2.8579    2.4750    0.0000 C   0  0  0  0  0  0  0  0  0  0  0  0
   -2.1434    2.0625    0.0000 C   0  0  0  0  0  0  0  0  0  0  0  0
   -1.4289    2.4750    0.0000 C   0  0  0  0  0  0  0  0  0  0  0  0
   -0.7145    2.0625    0.0000 C   0  0  0  0  0  0  0  0  0  0  0  0
   -0.7145    1.2375    0.0000 C   0  0  0  0  0  0  0  0  0  0  0  0
    0.0000    0.8250    0.0000 C   0  0  0  0  0  0  0  0  0  0  0  0
    0.0000    0.0000    0.0000 N   0  0  0  0  0  0  0  0  0  0  0  0
    0.7145   -0.4125    0.0000 N   0  0  0  0  0  0  0  0  0  0  0  0
    1.4289   -0.0000    0.0000 C   0  0  0  0  0  0  0  0  0  0  0  0
    0.7145   -1.2375    0.0000 C   0  0  0  0  0  0  0  0  0  0  0  0
    1.3819   -1.7224    0.0000 N   0  0  0  0  0  0  0  0  0  0  0  0
    1.1270   -2.5070    0.0000 C   0  0  0  0  0  0  0  0  0  0  0  0
    1.6119   -3.1745    0.0000 C   0  0  0  0  0  0  0  0  0  0  0  0
    2.4324   -3.0882    0.0000 C   0  0  0  0  0  0  0  0  0  0  0  0
    2.9173   -3.7557    0.0000 C   0  0  0  0  0  0  0  0  0  0  0  0
    2.5817   -4.5094    0.0000 C   0  0  0  0  0  0  0  0  0  0  0  0
    1.7613   -4.5956    0.0000 C   0  0  0  0  0  0  0  0  0  0  0  0
    1.2763   -3.9282    0.0000 C   0  0  0  0  0  0  0  0  0  0  0  0
    0.4559   -4.0144    0.0000 Cl  0  0  0  0  0  0  0  0  0  0  0  0
    0.3020   -2.5070    0.0000 C   0  0  0  0  0  0  0  0  0  0  0  0
    0.0470   -1.7224    0.0000 S   0  0  0  0  0  0  0  0  0  0  0  0
   -1.4289    0.8250    0.0000 C   0  0  0  0  0  0  0  0  0  0  0  0
   -1.4289    0.0000    0.0000 C   0  0  0  0  0  0  0  0  0  0  0  0
   -2.1434   -0.4125    0.0000 O   0  0  0  0  0  0  0  0  0  0  0  0
   -0.7145   -0.4125    0.0000 O   0  0  0  0  0  0  0  0  0  0  0  0
   -2.1434    1.2375    0.0000 C   0  0  0  0  0  0  0  0  0  0  0  0
  1  2  1  0  0  0  0
  2  3  4  0  0  0  0
  3  4  4  0  0  0  0
  4  5  4  0  0  0  0
  5  6  1  0  0  0  0
  6  7  2  0  0  0  0
  7  8  1  0  0  0  0
  8  9  1  0  0  0  0
  8 10  1  0  0  0  0
 10 11  4  0  0  0  0
 11 12  4  0  0  0  0
 12 13  1  0  0  0  0
 13 14  4  0  0  0  0
 14 15  4  0  0  0  0
 15 16  4  0  0  0  0
 16 17  4  0  0  0  0
 17 18  4  0  0  0  0
 13 18  4  0  0  0  0
 18 19  1  0  0  0  0
 12 20  4  0  0  0  0
 20 21  4  0  0  0  0
 10 21  4  0  0  0  0
  5 22  4  0  0  0  0
 22 23  1  0  0  0  0
 23 24  2  0  0  0  0
 23 25  1  0  0  0  0
 22 26  4  0  0  0  0
  2 26  4  0  0  0  0
M  END
> <IC50(uM)>
0.008400000000000001

> <Outcome>
1.0

> <BindingDB ID>
1001118

> <BindingDB MonomerID>
482804

> <BindingDB Ligand Name>
US10919869, No.  9

> <Curation/DataSource>
US Patent

> <Article DOI>
?

> <PMID>
?

> <Patent Number>
US10919869

> <Authors>
Li, H; Xu, Y; Wang, R; Zhao, Z; Song, W; Xu, L

> <Link to Ligand in BindingDB>
http://www.bindingdb.org/bind/chemsearch/marvin/MolStructure.jsp?monomerid=482804

> <Link to Ligand-Target Pair in BindingDB>
http://www.bindingdb.org/jsp/dbsearch/PrimarySearch_ki.jsp?energyterm=kJ/mole&tag=r21&monomerid=482804&enzyme=Dihydroorotate+dehydrogenase&column=ki&startPg=0&Increment=50&submit=Search

> <PubChem CID>
132157950

> <PubChem SID>
443551945

$$$$

  Mrv2115 07222212352D          

 36 40  0  0  0  0            999 V2000
   -5.1659   -2.8414    0.0000 C   0  0  0  0  0  0  0  0  0  0  0  0
   -5.5784   -2.1269    0.0000 C   0  0  0  0  0  0  0  0  0  0  0  0
   -6.4034   -2.1269    0.0000 C   0  0  0  0  0  0  0  0  0  0  0  0
   -6.8159   -1.4124    0.0000 N   0  0  0  0  0  0  0  0  0  0  0  0
   -6.4034   -0.6979    0.0000 C   0  0  0  0  0  0  0  0  0  0  0  0
   -5.5784   -0.6979    0.0000 N   0  0  0  0  0  0  0  0  0  0  0  0
   -5.1659   -1.4124    0.0000 C   0  0  0  0  0  0  0  0  0  0  0  0
   -4.3409   -1.4124    0.0000 N   0  0  0  0  0  0  0  0  0  0  0  0
   -3.9284   -0.6979    0.0000 C   0  0  0  0  0  0  0  0  0  0  0  0
   -4.3409    0.0165    0.0000 O   0  0  0  0  0  0  0  0  0  0  0  0
   -3.1034   -0.6979    0.0000 C   0  0  0  0  0  0  0  0  0  0  0  0
   -2.6909    0.0165    0.0000 C   0  0  0  0  0  0  0  0  0  0  0  0
   -1.8659    0.0165    0.0000 C   0  0  0  0  0  0  0  0  0  0  0  0
   -1.4534    0.7310    0.0000 F   0  0  0  0  0  0  0  0  0  0  0  0
   -1.4534   -0.6979    0.0000 C   0  0  0  0  0  0  0  0  0  0  0  0
   -0.6284   -0.6979    0.0000 N   0  0  0  0  0  0  0  0  0  0  0  0
   -0.1435   -1.3654    0.0000 N   0  0  0  0  0  0  0  0  0  0  0  0
    0.6411   -1.1104    0.0000 C   0  0  0  0  0  0  0  0  0  0  0  0
    0.6411   -0.2854    0.0000 N   0  0  0  0  0  0  0  0  0  0  0  0
   -0.1435   -0.0305    0.0000 C   0  0  0  0  0  0  0  0  0  0  0  0
   -0.3984    0.7541    0.0000 O   0  0  0  0  0  0  0  0  0  0  0  0
    1.3556    0.1271    0.0000 C   0  0  0  0  0  0  0  0  0  0  0  0
    2.0701   -0.2854    0.0000 C   0  0  0  0  0  0  0  0  0  0  0  0
    2.0701   -1.1104    0.0000 C   0  0  0  0  0  0  0  0  0  0  0  0
    1.3556   -1.5229    0.0000 C   0  0  0  0  0  0  0  0  0  0  0  0
   -1.8659   -1.4124    0.0000 C   0  0  0  0  0  0  0  0  0  0  0  0
   -2.6909   -1.4124    0.0000 C   0  0  0  0  0  0  0  0  0  0  0  0
   -3.1034   -2.1269    0.0000 O   0  0  0  0  0  0  0  0  0  0  0  0
   -2.6909   -2.8414    0.0000 C   0  0  0  0  0  0  0  0  0  0  0  0
   -1.8659   -2.8414    0.0000 C   0  0  0  0  0  0  0  0  0  0  0  0
   -3.1034   -3.5558    0.0000 C   0  0  0  0  0  0  0  0  0  0  0  0
   -2.6909   -4.2703    0.0000 C   0  0  0  0  0  0  0  0  0  0  0  0
   -3.1034   -4.9848    0.0000 C   0  0  0  0  0  0  0  0  0  0  0  0
   -3.9284   -4.9848    0.0000 C   0  0  0  0  0  0  0  0  0  0  0  0
   -4.3409   -4.2703    0.0000 C   0  0  0  0  0  0  0  0  0  0  0  0
   -3.9284   -3.5558    0.0000 C   0  0  0  0  0  0  0  0  0  0  0  0
  1  2  1  0  0  0  0
  2  3  4  0  0  0  0
  3  4  4  0  0  0  0
  4  5  4  0  0  0  0
  5  6  4  0  0  0  0
  6  7  4  0  0  0  0
  2  7  4  0  0  0  0
  7  8  1  0  0  0  0
  8  9  1  0  0  0  0
  9 10  2  0  0  0  0
  9 11  1  0  0  0  0
 11 12  4  0  0  0  0
 12 13  4  0  0  0  0
 13 14  1  0  0  0  0
 13 15  4  0  0  0  0
 15 16  1  0  0  0  0
 16 17  4  0  0  0  0
 17 18  4  0  0  0  0
 18 19  4  0  0  0  0
 19 20  4  0  0  0  0
 16 20  4  0  0  0  0
 20 21  2  0  0  0  0
 19 22  1  0  0  0  0
 22 23  1  0  0  0  0
 23 24  1  0  0  0  0
 24 25  1  0  0  0  0
 18 25  1  0  0  0  0
 15 26  4  0  0  0  0
 26 27  4  0  0  0  0
 11 27  4  0  0  0  0
 27 28  1  0  0  0  0
 28 29  1  0  0  0  0
 29 30  1  0  0  0  0
 29 31  1  0  0  0  0
 31 32  1  0  0  0  0
 32 33  1  0  0  0  0
 33 34  1  0  0  0  0
 34 35  1  0  0  0  0
 35 36  1  0  0  0  0
 31 36  1  0  0  0  0
M  END
> <IC50(uM)>
0.018

> <Outcome>
1.0

> <BindingDB ID>
1020518

> <BindingDB MonomerID>
490466

> <BindingDB Ligand Name>
2-[(1S)-1-cyclohexylethoxy]-5-fluoro-N-(5-methylpyrimidin-4-yl)-4-(3-oxo-5,6,7,8-tetrahydro[1,2,4]triazolo[4,3-a]pyridin-2(3H)-yl)benzamide::US10968216, Example 134

> <Curation/DataSource>
US Patent

> <Article DOI>
?

> <PMID>
?

> <Patent Number>
US10968216

> <Authors>
Gradl, SN; Nguyen, D; Eis, K; Gunther, J; Stellfeld, T; Janzer, A; Christian, S; Mueller, T; Sheikh, SE; Zhou, HJ; Zhao, C; Sykes, DB; Ferrara, SJ; Liu, K; Herbert, SA; Merz, C; Niehues, M; Nising, CF; Schafer, M; Zimmermann, K; Knablein, J; Thede, K; Faupel, T

> <Link to Ligand in BindingDB>
http://www.bindingdb.org/bind/chemsearch/marvin/MolStructure.jsp?monomerid=490466

> <Link to Ligand-Target Pair in BindingDB>
http://www.bindingdb.org/jsp/dbsearch/PrimarySearch_ki.jsp?energyterm=kJ/mole&tag=r21&monomerid=490466&enzyme=Dihydroorotate+dehydrogenase&column=ki&startPg=0&Increment=50&submit=Search

> <PubChem CID>
134474358

> <PubChem SID>
447117193

$$$$

  Mrv2115 07222212352D          

 36 40  0  0  0  0            999 V2000
   -0.1712   -0.6979    0.0000 C   0  0  0  0  0  0  0  0  0  0  0  0
    0.6538   -0.6979    0.0000 C   0  0  0  0  0  0  0  0  0  0  0  0
    1.1387   -0.0305    0.0000 N   0  0  0  0  0  0  0  0  0  0  0  0
    1.9233   -0.2854    0.0000 C   0  0  0  0  0  0  0  0  0  0  0  0
    2.6378    0.1271    0.0000 C   0  0  0  0  0  0  0  0  0  0  0  0
    2.6378    0.9521    0.0000 C   0  0  0  0  0  0  0  0  0  0  0  0
    3.3523    1.3646    0.0000 O   0  0  0  0  0  0  0  0  0  0  0  0
    1.9233    1.3646    0.0000 O   0  0  0  0  0  0  0  0  0  0  0  0
    3.3523   -0.2854    0.0000 C   0  0  0  0  0  0  0  0  0  0  0  0
    3.3523   -1.1104    0.0000 C   0  0  0  0  0  0  0  0  0  0  0  0
    4.0668   -1.5229    0.0000 C   0  0  0  0  0  0  0  0  0  0  0  0
    4.7812   -1.1104    0.0000 C   0  0  0  0  0  0  0  0  0  0  0  0
    4.7812   -0.2854    0.0000 F   0  0  0  0  0  0  0  0  0  0  0  0
    5.4957   -1.5229    0.0000 C   0  0  0  0  0  0  0  0  0  0  0  0
    6.2102   -1.1104    0.0000 F   0  0  0  0  0  0  0  0  0  0  0  0
    5.4957   -2.3479    0.0000 C   0  0  0  0  0  0  0  0  0  0  0  0
    6.2102   -2.7604    0.0000 C   0  0  0  0  0  0  0  0  0  0  0  0
    6.9246   -2.3479    0.0000 C   0  0  0  0  0  0  0  0  0  0  0  0
    7.6391   -2.7604    0.0000 C   0  0  0  0  0  0  0  0  0  0  0  0
    7.6391   -3.5854    0.0000 C   0  0  0  0  0  0  0  0  0  0  0  0
    6.9246   -3.9979    0.0000 C   0  0  0  0  0  0  0  0  0  0  0  0
    6.9246   -4.8229    0.0000 C   0  0  0  0  0  0  0  0  0  0  0  0
    6.2102   -5.2354    0.0000 N   0  0  0  0  0  0  0  0  0  0  0  0
    6.2102   -6.0604    0.0000 C   0  0  0  0  0  0  0  0  0  0  0  0
    5.4957   -6.4729    0.0000 C   0  0  0  0  0  0  0  0  0  0  0  0
    4.7812   -6.0604    0.0000 C   0  0  0  0  0  0  0  0  0  0  0  0
    4.7812   -5.2354    0.0000 C   0  0  0  0  0  0  0  0  0  0  0  0
    5.4957   -4.8229    0.0000 C   0  0  0  0  0  0  0  0  0  0  0  0
    6.2102   -3.5854    0.0000 C   0  0  0  0  0  0  0  0  0  0  0  0
    4.7812   -2.7604    0.0000 C   0  0  0  0  0  0  0  0  0  0  0  0
    4.7812   -3.5854    0.0000 F   0  0  0  0  0  0  0  0  0  0  0  0
    4.0668   -2.3479    0.0000 C   0  0  0  0  0  0  0  0  0  0  0  0
    3.3523   -2.7604    0.0000 F   0  0  0  0  0  0  0  0  0  0  0  0
    2.6378   -1.5229    0.0000 C   0  0  0  0  0  0  0  0  0  0  0  0
    1.9233   -1.1104    0.0000 C   0  0  0  0  0  0  0  0  0  0  0  0
    1.1387   -1.3654    0.0000 N   0  0  0  0  0  0  0  0  0  0  0  0
  1  2  1  0  0  0  0
  2  3  4  0  0  0  0
  3  4  4  0  0  0  0
  4  5  4  0  0  0  0
  5  6  1  0  0  0  0
  6  7  2  0  0  0  0
  6  8  1  0  0  0  0
  5  9  4  0  0  0  0
  9 10  4  0  0  0  0
 10 11  1  0  0  0  0
 11 12  4  0  0  0  0
 12 13  1  0  0  0  0
 12 14  4  0  0  0  0
 14 15  1  0  0  0  0
 14 16  4  0  0  0  0
 16 17  1  0  0  0  0
 17 18  4  0  0  0  0
 18 19  4  0  0  0  0
 19 20  4  0  0  0  0
 20 21  4  0  0  0  0
 21 22  1  0  0  0  0
 22 23  1  0  0  0  0
 23 24  1  0  0  0  0
 24 25  1  0  0  0  0
 25 26  1  0  0  0  0
 26 27  1  0  0  0  0
 27 28  1  0  0  0  0
 23 28  1  0  0  0  0
 21 29  4  0  0  0  0
 17 29  4  0  0  0  0
 16 30  4  0  0  0  0
 30 31  1  0  0  0  0
 30 32  4  0  0  0  0
 11 32  4  0  0  0  0
 32 33  1  0  0  0  0
 10 34  4  0  0  0  0
 34 35  4  0  0  0  0
  4 35  4  0  0  0  0
 35 36  4  0  0  0  0
  2 36  4  0  0  0  0
M  STY  1   1 DAT
M  SAL   1  1  36
M  SDT   1 MRV_IMPLICIT_H                                        
M  SDD   1     0.5304   -0.4125    DR    ALL  0       0  
M  SED   1 IMPL_H1
M  END
> <IC50(uM)>
0.0055

> <Outcome>
1.0

> <BindingDB ID>
1045601

> <BindingDB MonomerID>
501659

> <BindingDB Ligand Name>
US11028054, Example 56

> <Curation/DataSource>
US Patent

> <Article DOI>
?

> <PMID>
?

> <Patent Number>
US11028054

> <Authors>
Thunuguntla, SS; Hosahalli, S; Panigrahi, SK; Schwarz, M; Arit, M

> <Link to Ligand in BindingDB>
http://www.bindingdb.org/bind/chemsearch/marvin/MolStructure.jsp?monomerid=501659

> <Link to Ligand-Target Pair in BindingDB>
http://www.bindingdb.org/jsp/dbsearch/PrimarySearch_ki.jsp?energyterm=kJ/mole&tag=r21&monomerid=501659&enzyme=Dihydroorotate+dehydrogenase&column=ki&startPg=0&Increment=50&submit=Search

> <PubChem CID>
?

> <PubChem SID>
?

$$$$

  Mrv2115 07222212352D          

 25 27  0  0  0  0            999 V2000
    0.0000    4.1250    0.0000 F   0  0  0  0  0  0  0  0  0  0  0  0
    0.7145    3.7125    0.0000 C   0  0  0  0  0  0  0  0  0  0  0  0
    0.3020    2.9980    0.0000 F   0  0  0  0  0  0  0  0  0  0  0  0
    1.1270    4.4270    0.0000 F   0  0  0  0  0  0  0  0  0  0  0  0
    1.4289    3.3000    0.0000 O   0  0  0  0  0  0  0  0  0  0  0  0
    1.4289    2.4750    0.0000 C   0  0  0  0  0  0  0  0  0  0  0  0
    2.1434    2.0625    0.0000 C   0  0  0  0  0  0  0  0  0  0  0  0
    2.1434    1.2375    0.0000 C   0  0  0  0  0  0  0  0  0  0  0  0
    1.4289    0.8250    0.0000 C   0  0  0  0  0  0  0  0  0  0  0  0
    1.4289   -0.0000    0.0000 N   0  0  0  0  0  0  0  0  0  0  0  0
    0.7145   -0.4125    0.0000 C   0  0  0  0  0  0  0  0  0  0  0  0
    0.0000    0.0000    0.0000 S   0  0  0  0  0  0  0  0  0  0  0  0
    0.7145   -1.2375    0.0000 C   0  0  0  0  0  0  0  0  0  0  0  0
    1.3819   -1.7224    0.0000 C   0  0  0  0  0  0  0  0  0  0  0  0
    1.1270   -2.5070    0.0000 N   0  0  0  0  0  0  0  0  0  0  0  0
    0.3020   -2.5070    0.0000 O   0  0  0  0  0  0  0  0  0  0  0  0
    0.0470   -1.7224    0.0000 C   0  0  0  0  0  0  0  0  0  0  0  0
   -0.7376   -1.4675    0.0000 C   0  0  0  0  0  0  0  0  0  0  0  0
   -1.3507   -2.0195    0.0000 C   0  0  0  0  0  0  0  0  0  0  0  0
   -2.1353   -1.7646    0.0000 C   0  0  0  0  0  0  0  0  0  0  0  0
   -2.3068   -0.9576    0.0000 C   0  0  0  0  0  0  0  0  0  0  0  0
   -1.6937   -0.4056    0.0000 C   0  0  0  0  0  0  0  0  0  0  0  0
   -0.9091   -0.6605    0.0000 C   0  0  0  0  0  0  0  0  0  0  0  0
    0.7145    1.2375    0.0000 C   0  0  0  0  0  0  0  0  0  0  0  0
    0.7145    2.0625    0.0000 C   0  0  0  0  0  0  0  0  0  0  0  0
  1  2  1  0  0  0  0
  2  3  1  0  0  0  0
  2  4  1  0  0  0  0
  2  5  1  0  0  0  0
  5  6  1  0  0  0  0
  6  7  4  0  0  0  0
  7  8  4  0  0  0  0
  8  9  4  0  0  0  0
  9 10  1  0  0  0  0
 10 11  1  0  0  0  0
 11 12  2  0  0  0  0
 11 13  1  0  0  0  0
 13 14  4  0  0  0  0
 14 15  4  0  0  0  0
 15 16  4  0  0  0  0
 16 17  4  0  0  0  0
 13 17  4  0  0  0  0
 17 18  1  0  0  0  0
 18 19  1  0  0  0  0
 19 20  1  0  0  0  0
 20 21  1  0  0  0  0
 21 22  1  0  0  0  0
 22 23  1  0  0  0  0
 18 23  1  0  0  0  0
  9 24  4  0  0  0  0
 24 25  4  0  0  0  0
  6 25  4  0  0  0  0
M  END
> <IC50(uM)>
50.0

> <Outcome>
0.0

> <BindingDB ID>
50123293

> <BindingDB MonomerID>
50071385

> <BindingDB Ligand Name>
5-Cyclohexyl-isoxazole-4-carbothioic acid (4-trifluoromethoxy-phenyl)-amide::CHEMBL303167

> <Curation/DataSource>
ChEMBL

> <Article DOI>
10.1016/s0960-894x(98)00365-5

> <PMID>
9873513

> <Patent Number>
?

> <Authors>
Albert, R; Knecht, H; Andersen, E; Hungerford, V; Schreier, MH; Papageorgiou, C

> <Link to Ligand in BindingDB>
http://www.bindingdb.org/bind/chemsearch/marvin/MolStructure.jsp?monomerid=50071385

> <Link to Ligand-Target Pair in BindingDB>
http://www.bindingdb.org/jsp/dbsearch/PrimarySearch_ki.jsp?energyterm=kJ/mole&tag=r21&monomerid=50071385&enzyme=Dihydroorotate+dehydrogenase&column=ki&startPg=0&Increment=50&submit=Search

> <PubChem CID>
44310718

> <PubChem SID>
103965139

$$$$

  Mrv2115 07222212352D          

 20 21  0  0  0  0            999 V2000
    1.4289   -1.6500    0.0000 C   0  0  0  0  0  0  0  0  0  0  0  0
    1.4289   -2.4750    0.0000 C   0  0  0  0  0  0  0  0  0  0  0  0
    2.0964   -2.9599    0.0000 O   0  0  0  0  0  0  0  0  0  0  0  0
    1.8414   -3.7445    0.0000 N   0  0  0  0  0  0  0  0  0  0  0  0
    1.0164   -3.7445    0.0000 C   0  0  0  0  0  0  0  0  0  0  0  0
    0.7615   -2.9599    0.0000 C   0  0  0  0  0  0  0  0  0  0  0  0
   -0.0231   -2.7050    0.0000 C   0  0  0  0  0  0  0  0  0  0  0  0
   -0.1946   -1.8980    0.0000 S   0  0  0  0  0  0  0  0  0  0  0  0
   -0.6362   -3.2570    0.0000 N   0  0  0  0  0  0  0  0  0  0  0  0
   -1.4208   -3.0021    0.0000 C   0  0  0  0  0  0  0  0  0  0  0  0
   -2.0339   -3.5541    0.0000 C   0  0  0  0  0  0  0  0  0  0  0  0
   -2.8186   -3.2992    0.0000 C   0  0  0  0  0  0  0  0  0  0  0  0
   -2.9901   -2.4922    0.0000 C   0  0  0  0  0  0  0  0  0  0  0  0
   -3.7747   -2.2373    0.0000 O   0  0  0  0  0  0  0  0  0  0  0  0
   -4.3878   -2.7893    0.0000 C   0  0  0  0  0  0  0  0  0  0  0  0
   -5.0009   -3.3413    0.0000 F   0  0  0  0  0  0  0  0  0  0  0  0
   -4.9398   -2.1762    0.0000 F   0  0  0  0  0  0  0  0  0  0  0  0
   -3.8358   -3.4024    0.0000 F   0  0  0  0  0  0  0  0  0  0  0  0
   -2.3770   -1.9402    0.0000 C   0  0  0  0  0  0  0  0  0  0  0  0
   -1.5924   -2.1951    0.0000 C   0  0  0  0  0  0  0  0  0  0  0  0
  1  2  1  0  0  0  0
  2  3  4  0  0  0  0
  3  4  4  0  0  0  0
  4  5  4  0  0  0  0
  5  6  4  0  0  0  0
  2  6  4  0  0  0  0
  6  7  1  0  0  0  0
  7  8  2  0  0  0  0
  7  9  1  0  0  0  0
  9 10  1  0  0  0  0
 10 11  4  0  0  0  0
 11 12  4  0  0  0  0
 12 13  4  0  0  0  0
 13 14  1  0  0  0  0
 14 15  1  0  0  0  0
 15 16  1  0  0  0  0
 15 17  1  0  0  0  0
 15 18  1  0  0  0  0
 13 19  4  0  0  0  0
 19 20  4  0  0  0  0
 10 20  4  0  0  0  0
M  END
> <IC50(uM)>
7.2

> <Outcome>
0.0

> <BindingDB ID>
50123303

> <BindingDB MonomerID>
50071396

> <BindingDB Ligand Name>
5-Methyl-isoxazole-4-carbothioic acid (4-trifluoromethoxy-phenyl)-amide::CHEMBL70261

> <Curation/DataSource>
ChEMBL

> <Article DOI>
10.1016/s0960-894x(98)00365-5

> <PMID>
9873513

> <Patent Number>
?

> <Authors>
Albert, R; Knecht, H; Andersen, E; Hungerford, V; Schreier, MH; Papageorgiou, C

> <Link to Ligand in BindingDB>
http://www.bindingdb.org/bind/chemsearch/marvin/MolStructure.jsp?monomerid=50071396

> <Link to Ligand-Target Pair in BindingDB>
http://www.bindingdb.org/jsp/dbsearch/PrimarySearch_ki.jsp?energyterm=kJ/mole&tag=r21&monomerid=50071396&enzyme=Dihydroorotate+dehydrogenase&column=ki&startPg=0&Increment=50&submit=Search

> <PubChem CID>
44310373

> <PubChem SID>
103965150

$$$$

  Mrv2115 07222212352D          

 24 26  0  0  0  0            999 V2000
    2.1434   -2.8875    0.0000 C   0  0  0  0  0  0  0  0  0  0  0  0
    2.1434   -3.7125    0.0000 C   0  0  0  0  0  0  0  0  0  0  0  0
    1.4289   -4.1250    0.0000 C   0  0  0  0  0  0  0  0  0  0  0  0
    1.4289   -4.9500    0.0000 C   0  0  0  0  0  0  0  0  0  0  0  0
    2.1434   -5.3625    0.0000 C   0  0  0  0  0  0  0  0  0  0  0  0
    2.1434   -6.1875    0.0000 N   0  0  0  0  0  0  0  0  0  0  0  0
    1.4289   -6.6000    0.0000 C   0  0  0  0  0  0  0  0  0  0  0  0
    1.4289   -7.4250    0.0000 C   0  0  0  0  0  0  0  0  0  0  0  0
    0.7145   -7.8375    0.0000 N   0  0  0  0  0  0  0  0  0  0  0  0
    0.0000   -7.4250    0.0000 C   0  0  0  0  0  0  0  0  0  0  0  0
   -0.7145   -7.8375    0.0000 C   0  0  0  0  0  0  0  0  0  0  0  0
   -0.7145   -8.6625    0.0000 C   0  0  0  0  0  0  0  0  0  0  0  0
   -1.4289   -9.0750    0.0000 C   0  0  0  0  0  0  0  0  0  0  0  0
   -2.1434   -8.6625    0.0000 C   0  0  0  0  0  0  0  0  0  0  0  0
   -2.1434   -7.8375    0.0000 C   0  0  0  0  0  0  0  0  0  0  0  0
   -1.4289   -7.4250    0.0000 C   0  0  0  0  0  0  0  0  0  0  0  0
    0.0000   -6.6000    0.0000 C   0  0  0  0  0  0  0  0  0  0  0  0
   -0.7145   -6.1875    0.0000 F   0  0  0  0  0  0  0  0  0  0  0  0
    0.7145   -6.1875    0.0000 C   0  0  0  0  0  0  0  0  0  0  0  0
    2.8579   -4.9500    0.0000 C   0  0  0  0  0  0  0  0  0  0  0  0
    3.5724   -5.3625    0.0000 C   0  0  0  0  0  0  0  0  0  0  0  0
    4.2868   -4.9500    0.0000 O   0  0  0  0  0  0  0  0  0  0  0  0
    3.5724   -6.1875    0.0000 O   0  0  0  0  0  0  0  0  0  0  0  0
    2.8579   -4.1250    0.0000 C   0  0  0  0  0  0  0  0  0  0  0  0
  1  2  1  0  0  0  0
  2  3  4  0  0  0  0
  3  4  4  0  0  0  0
  4  5  4  0  0  0  0
  5  6  1  0  0  0  0
  6  7  1  0  0  0  0
  7  8  4  0  0  0  0
  8  9  4  0  0  0  0
  9 10  4  0  0  0  0
 10 11  1  0  0  0  0
 11 12  4  0  0  0  0
 12 13  4  0  0  0  0
 13 14  4  0  0  0  0
 14 15  4  0  0  0  0
 15 16  4  0  0  0  0
 11 16  4  0  0  0  0
 10 17  4  0  0  0  0
 17 18  1  0  0  0  0
 17 19  4  0  0  0  0
  7 19  4  0  0  0  0
  5 20  4  0  0  0  0
 20 21  1  0  0  0  0
 21 22  2  0  0  0  0
 21 23  1  0  0  0  0
 20 24  4  0  0  0  0
  2 24  4  0  0  0  0
M  END
> <IC50(uM)>
0.018

> <Outcome>
1.0

> <BindingDB ID>
219980

> <BindingDB MonomerID>
102450

> <BindingDB Ligand Name>
US8536165, 8

> <Curation/DataSource>
US Patent

> <Article DOI>
?

> <PMID>
?

> <Patent Number>
US8536165

> <Authors>
Castro Palomino Laria, JC; Terricabras Belart, E; Erra Sola, M; Navarro Romero, E; Fonquerna Pou, S; Cardus Figueras, A; Lozoya Toribio, ME

> <Link to Ligand in BindingDB>
http://www.bindingdb.org/bind/chemsearch/marvin/MolStructure.jsp?monomerid=102450

> <Link to Ligand-Target Pair in BindingDB>
http://www.bindingdb.org/jsp/dbsearch/PrimarySearch_ki.jsp?energyterm=kJ/mole&tag=r21&monomerid=102450&enzyme=Dihydroorotate+dehydrogenase&column=ki&startPg=0&Increment=50&submit=Search

> <PubChem CID>
25186450

> <PubChem SID>
172097741

$$$$

  Mrv2115 07222212352D          

 39 43  0  0  0  0            999 V2000
   -1.8659    1.4455    0.0000 C   0  0  0  0  0  0  0  0  0  0  0  0
   -2.6909    1.4455    0.0000 C   0  0  0  0  0  0  0  0  0  0  0  0
   -3.1034    0.7310    0.0000 O   0  0  0  0  0  0  0  0  0  0  0  0
   -2.6909    0.0165    0.0000 C   0  0  0  0  0  0  0  0  0  0  0  0
   -1.8659    0.0165    0.0000 C   0  0  0  0  0  0  0  0  0  0  0  0
   -1.4534   -0.6979    0.0000 C   0  0  0  0  0  0  0  0  0  0  0  0
   -0.6284   -0.6979    0.0000 N   0  0  0  0  0  0  0  0  0  0  0  0
   -0.1435   -1.3654    0.0000 N   0  0  0  0  0  0  0  0  0  0  0  0
    0.6411   -1.1104    0.0000 C   0  0  0  0  0  0  0  0  0  0  0  0
    0.6411   -0.2854    0.0000 N   0  0  0  0  0  0  0  0  0  0  0  0
   -0.1435   -0.0305    0.0000 C   0  0  0  0  0  0  0  0  0  0  0  0
   -0.3984    0.7541    0.0000 O   0  0  0  0  0  0  0  0  0  0  0  0
    1.3556    0.1271    0.0000 C   0  0  0  0  0  0  0  0  0  0  0  0
    2.0701   -0.2854    0.0000 C   0  0  0  0  0  0  0  0  0  0  0  0
    2.0701   -1.1104    0.0000 C   0  0  0  0  0  0  0  0  0  0  0  0
    1.3556   -1.5229    0.0000 C   0  0  0  0  0  0  0  0  0  0  0  0
   -1.8659   -1.4124    0.0000 C   0  0  0  0  0  0  0  0  0  0  0  0
   -1.4534   -2.1269    0.0000 F   0  0  0  0  0  0  0  0  0  0  0  0
   -2.6909   -1.4124    0.0000 C   0  0  0  0  0  0  0  0  0  0  0  0
   -3.1034   -0.6979    0.0000 C   0  0  0  0  0  0  0  0  0  0  0  0
   -3.9284   -0.6979    0.0000 C   0  0  0  0  0  0  0  0  0  0  0  0
   -4.3409   -1.4124    0.0000 O   0  0  0  0  0  0  0  0  0  0  0  0
   -4.3409    0.0165    0.0000 N   0  0  0  0  0  0  0  0  0  0  0  0
   -5.1659    0.0165    0.0000 C   0  0  0  0  0  0  0  0  0  0  0  0
   -5.5784   -0.6979    0.0000 C   0  0  0  0  0  0  0  0  0  0  0  0
   -6.4034   -0.6979    0.0000 C   0  0  0  0  0  0  0  0  0  0  0  0
   -6.8159    0.0165    0.0000 C   0  0  0  0  0  0  0  0  0  0  0  0
   -6.4034    0.7310    0.0000 C   0  0  0  0  0  0  0  0  0  0  0  0
   -6.8159    1.4455    0.0000 C   0  0  0  0  0  0  0  0  0  0  0  0
   -7.2284    2.1599    0.0000 F   0  0  0  0  0  0  0  0  0  0  0  0
   -6.1015    1.8580    0.0000 F   0  0  0  0  0  0  0  0  0  0  0  0
   -7.5304    1.0330    0.0000 F   0  0  0  0  0  0  0  0  0  0  0  0
   -5.5784    0.7310    0.0000 C   0  0  0  0  0  0  0  0  0  0  0  0
   -3.1034    2.1599    0.0000 C   0  0  0  0  0  0  0  0  0  0  0  0
   -3.9284    2.1599    0.0000 C   0  0  0  0  0  0  0  0  0  0  0  0
   -4.3409    2.8744    0.0000 C   0  0  0  0  0  0  0  0  0  0  0  0
   -3.9284    3.5889    0.0000 C   0  0  0  0  0  0  0  0  0  0  0  0
   -3.1034    3.5889    0.0000 C   0  0  0  0  0  0  0  0  0  0  0  0
   -2.6909    2.8744    0.0000 C   0  0  0  0  0  0  0  0  0  0  0  0
  1  2  1  0  0  0  0
  2  3  1  0  0  0  0
  3  4  1  0  0  0  0
  4  5  4  0  0  0  0
  5  6  4  0  0  0  0
  6  7  1  0  0  0  0
  7  8  4  0  0  0  0
  8  9  4  0  0  0  0
  9 10  4  0  0  0  0
 10 11  4  0  0  0  0
  7 11  4  0  0  0  0
 11 12  2  0  0  0  0
 10 13  1  0  0  0  0
 13 14  1  0  0  0  0
 14 15  1  0  0  0  0
 15 16  1  0  0  0  0
  9 16  1  0  0  0  0
  6 17  4  0  0  0  0
 17 18  1  0  0  0  0
 17 19  4  0  0  0  0
 19 20  4  0  0  0  0
  4 20  4  0  0  0  0
 20 21  1  0  0  0  0
 21 22  2  0  0  0  0
 21 23  1  0  0  0  0
 23 24  1  0  0  0  0
 24 25  4  0  0  0  0
 25 26  4  0  0  0  0
 26 27  4  0  0  0  0
 27 28  4  0  0  0  0
 28 29  1  0  0  0  0
 29 30  1  0  0  0  0
 29 31  1  0  0  0  0
 29 32  1  0  0  0  0
 28 33  4  0  0  0  0
 24 33  4  0  0  0  0
  2 34  1  0  0  0  0
 34 35  1  0  0  0  0
 35 36  1  0  0  0  0
 36 37  1  0  0  0  0
 37 38  1  0  0  0  0
 38 39  1  0  0  0  0
 34 39  1  0  0  0  0
M  END
> <IC50(uM)>
0.137

> <Outcome>
1.0

> <BindingDB ID>
1020542; 1020541

> <BindingDB MonomerID>
490482

> <BindingDB Ligand Name>
2-[(1S)-1-cyclohexylethoxy]-5-fluoro-4-(3-oxo-5,6,7,8-tetrahydro[1,2,4]triazolo[4,3-a]pyridin-2(3H)-yl)-N-[3-(trifluoromethyl)phenyl]benzamide::US10968216, Example 150

> <Curation/DataSource>
US Patent

> <Article DOI>
?

> <PMID>
?

> <Patent Number>
US10968216

> <Authors>
Gradl, SN; Nguyen, D; Eis, K; Gunther, J; Stellfeld, T; Janzer, A; Christian, S; Mueller, T; Sheikh, SE; Zhou, HJ; Zhao, C; Sykes, DB; Ferrara, SJ; Liu, K; Herbert, SA; Merz, C; Niehues, M; Nising, CF; Schafer, M; Zimmermann, K; Knablein, J; Thede, K; Faupel, T

> <Link to Ligand in BindingDB>
http://www.bindingdb.org/bind/chemsearch/marvin/MolStructure.jsp?monomerid=490482

> <Link to Ligand-Target Pair in BindingDB>
http://www.bindingdb.org/jsp/dbsearch/PrimarySearch_ki.jsp?energyterm=kJ/mole&tag=r21&monomerid=490482&enzyme=Dihydroorotate+dehydrogenase&column=ki&startPg=0&Increment=50&submit=Search

> <PubChem CID>
134474522

> <PubChem SID>
447117209

$$$$

  Mrv2115 07222212352D          

 33 35  0  0  0  0            999 V2000
   -3.4714   -7.5203    0.0000 C   0  0  0  0  0  0  0  0  0  0  0  0
   -2.7569   -7.9328    0.0000 C   0  0  0  0  0  0  0  0  0  0  0  0
   -2.7569   -8.7578    0.0000 C   0  0  0  0  0  0  0  0  0  0  0  0
   -2.0425   -7.5203    0.0000 O   0  0  0  0  0  0  0  0  0  0  0  0
   -1.3280   -7.9328    0.0000 C   0  0  0  0  0  0  0  0  0  0  0  0
   -1.3280   -8.7578    0.0000 O   0  0  0  0  0  0  0  0  0  0  0  0
   -0.6135   -7.5203    0.0000 O   0  0  0  0  0  0  0  0  0  0  0  0
    0.1010   -7.9328    0.0000 C   0  0  0  0  0  0  0  0  0  0  0  0
    0.8154   -7.5203    0.0000 O   0  0  0  0  0  0  0  0  0  0  0  0
    1.5299   -7.9328    0.0000 C   0  0  0  0  0  0  0  0  0  0  0  0
    1.5299   -8.7578    0.0000 O   0  0  0  0  0  0  0  0  0  0  0  0
    2.2444   -7.5203    0.0000 C   0  0  0  0  0  0  0  0  0  0  0  0
    2.2444   -6.6953    0.0000 C   0  0  0  0  0  0  0  0  0  0  0  0
    2.9588   -6.2828    0.0000 C   0  0  0  0  0  0  0  0  0  0  0  0
    3.6733   -6.6953    0.0000 C   0  0  0  0  0  0  0  0  0  0  0  0
    3.6733   -7.5203    0.0000 C   0  0  0  0  0  0  0  0  0  0  0  0
    2.9588   -7.9328    0.0000 C   0  0  0  0  0  0  0  0  0  0  0  0
    2.9588   -8.7578    0.0000 C   0  0  0  0  0  0  0  0  0  0  0  0
    2.2444   -9.1703    0.0000 N   0  0  0  0  0  0  0  0  0  0  0  0
    2.2444   -9.9953    0.0000 N   0  0  0  0  0  0  0  0  0  0  0  0
    1.5299  -10.4078    0.0000 C   0  0  0  0  0  0  0  0  0  0  0  0
    2.9588  -10.4078    0.0000 C   0  0  0  0  0  0  0  0  0  0  0  0
    3.7125  -10.0722    0.0000 N   0  0  0  0  0  0  0  0  0  0  0  0
    4.2645  -10.6853    0.0000 C   0  0  0  0  0  0  0  0  0  0  0  0
    5.0850  -10.5991    0.0000 C   0  0  0  0  0  0  0  0  0  0  0  0
    5.4206   -9.8454    0.0000 C   0  0  0  0  0  0  0  0  0  0  0  0
    6.2411   -9.7592    0.0000 C   0  0  0  0  0  0  0  0  0  0  0  0
    6.7260  -10.4266    0.0000 C   0  0  0  0  0  0  0  0  0  0  0  0
    6.3904  -11.1803    0.0000 C   0  0  0  0  0  0  0  0  0  0  0  0
    5.5699  -11.2665    0.0000 C   0  0  0  0  0  0  0  0  0  0  0  0
    5.2344  -12.0202    0.0000 Cl  0  0  0  0  0  0  0  0  0  0  0  0
    3.8520  -11.3998    0.0000 C   0  0  0  0  0  0  0  0  0  0  0  0
    3.0451  -11.2283    0.0000 S   0  0  0  0  0  0  0  0  0  0  0  0
  1  2  1  0  0  0  0
  2  3  1  0  0  0  0
  2  4  1  0  0  0  0
  4  5  1  0  0  0  0
  5  6  2  0  0  0  0
  5  7  1  0  0  0  0
  7  8  1  0  0  0  0
  8  9  1  0  0  0  0
  9 10  1  0  0  0  0
 10 11  2  0  0  0  0
 10 12  1  0  0  0  0
 12 13  4  0  0  0  0
 13 14  4  0  0  0  0
 14 15  4  0  0  0  0
 15 16  4  0  0  0  0
 16 17  4  0  0  0  0
 12 17  4  0  0  0  0
 17 18  1  0  0  0  0
 18 19  2  0  0  0  0
 19 20  1  0  0  0  0
 20 21  1  0  0  0  0
 20 22  1  0  0  0  0
 22 23  4  0  0  0  0
 23 24  4  0  0  0  0
 24 25  1  0  0  0  0
 25 26  4  0  0  0  0
 26 27  4  0  0  0  0
 27 28  4  0  0  0  0
 28 29  4  0  0  0  0
 29 30  4  0  0  0  0
 25 30  4  0  0  0  0
 30 31  1  0  0  0  0
 24 32  4  0  0  0  0
 32 33  4  0  0  0  0
 22 33  4  0  0  0  0
M  END
> <IC50(uM)>
50.0

> <Outcome>
0.0

> <BindingDB ID>
1001158

> <BindingDB MonomerID>
482844

> <BindingDB Ligand Name>
US10919869, No.  B11

> <Curation/DataSource>
US Patent

> <Article DOI>
?

> <PMID>
?

> <Patent Number>
US10919869

> <Authors>
Li, H; Xu, Y; Wang, R; Zhao, Z; Song, W; Xu, L

> <Link to Ligand in BindingDB>
http://www.bindingdb.org/bind/chemsearch/marvin/MolStructure.jsp?monomerid=482844

> <Link to Ligand-Target Pair in BindingDB>
http://www.bindingdb.org/jsp/dbsearch/PrimarySearch_ki.jsp?energyterm=kJ/mole&tag=r21&monomerid=482844&enzyme=Dihydroorotate+dehydrogenase&column=ki&startPg=0&Increment=50&submit=Search

> <PubChem CID>
132157927

> <PubChem SID>
443551984

$$$$

  Mrv2115 07222212352D          

 24 28  0  0  0  0            999 V2000
   10.9658   -0.2986    0.0000 O   0  0  0  0  0  0  0  0  0  0  0  0
   10.4138   -0.9117    0.0000 C   0  0  0  0  0  0  0  0  0  0  0  0
   10.6687   -1.6963    0.0000 C   0  0  0  0  0  0  0  0  0  0  0  0
   11.4757   -1.8678    0.0000 C   0  0  0  0  0  0  0  0  0  0  0  0
   11.7306   -2.6525    0.0000 C   0  0  0  0  0  0  0  0  0  0  0  0
   11.1786   -3.2656    0.0000 C   0  0  0  0  0  0  0  0  0  0  0  0
   10.3716   -3.0940    0.0000 C   0  0  0  0  0  0  0  0  0  0  0  0
   10.1167   -2.3094    0.0000 C   0  0  0  0  0  0  0  0  0  0  0  0
    9.3097   -2.1379    0.0000 C   0  0  0  0  0  0  0  0  0  0  0  0
    8.7577   -2.7510    0.0000 O   0  0  0  0  0  0  0  0  0  0  0  0
    9.0548   -1.3533    0.0000 C   0  0  0  0  0  0  0  0  0  0  0  0
    9.6068   -0.7402    0.0000 C   0  0  0  0  0  0  0  0  0  0  0  0
    9.1943   -0.0257    0.0000 N   0  0  0  0  0  0  0  0  0  0  0  0
    8.3873   -0.1972    0.0000 N   0  0  0  0  0  0  0  0  0  0  0  0
    8.3011   -1.0177    0.0000 N   0  0  0  0  0  0  0  0  0  0  0  0
    7.5866   -1.4302    0.0000 C   0  0  0  0  0  0  0  0  0  0  0  0
    7.5866   -2.2552    0.0000 C   0  0  0  0  0  0  0  0  0  0  0  0
    6.8722   -2.6677    0.0000 C   0  0  0  0  0  0  0  0  0  0  0  0
    6.1577   -2.2552    0.0000 C   0  0  0  0  0  0  0  0  0  0  0  0
    6.1577   -1.4302    0.0000 C   0  0  0  0  0  0  0  0  0  0  0  0
    6.8722   -1.0177    0.0000 C   0  0  0  0  0  0  0  0  0  0  0  0
    5.3731   -1.1753    0.0000 O   0  0  0  0  0  0  0  0  0  0  0  0
    4.8881   -1.8427    0.0000 C   0  0  0  0  0  0  0  0  0  0  0  0
    5.3731   -2.5101    0.0000 O   0  0  0  0  0  0  0  0  0  0  0  0
  1  2  2  0  0  0  0
  2  3  1  0  0  0  0
  3  4  4  0  0  0  0
  4  5  4  0  0  0  0
  5  6  4  0  0  0  0
  6  7  4  0  0  0  0
  7  8  4  0  0  0  0
  3  8  4  0  0  0  0
  8  9  1  0  0  0  0
  9 10  2  0  0  0  0
  9 11  1  0  0  0  0
 11 12  4  0  0  0  0
  2 12  1  0  0  0  0
 12 13  4  0  0  0  0
 13 14  4  0  0  0  0
 14 15  4  0  0  0  0
 11 15  4  0  0  0  0
 15 16  1  0  0  0  0
 16 17  4  0  0  0  0
 17 18  4  0  0  0  0
 18 19  4  0  0  0  0
 19 20  4  0  0  0  0
 20 21  4  0  0  0  0
 16 21  4  0  0  0  0
 20 22  1  0  0  0  0
 22 23  1  0  0  0  0
 23 24  1  0  0  0  0
 19 24  1  0  0  0  0
M  END
> <IC50(uM)>
1.0

> <Outcome>
1.0

> <BindingDB ID>
51338175

> <BindingDB MonomerID>
50541649

> <BindingDB Ligand Name>
CHEMBL4642476

> <Curation/DataSource>
ChEMBL

> <Article DOI>
10.1021/acs.jmedchem.0c00512

> <PMID>
32496056

> <Patent Number>
?

> <Authors>
Zuo, Z; Liu, X; Qian, X; Zeng, T; Sang, N; Liu, H; Zhou, Y; Tao, L; Zhou, X; Su, N; Yu, Y; Chen, Q; Luo, Y; Zhao, Y

> <Link to Ligand in BindingDB>
http://www.bindingdb.org/bind/chemsearch/marvin/MolStructure.jsp?monomerid=50541649

> <Link to Ligand-Target Pair in BindingDB>
http://www.bindingdb.org/jsp/dbsearch/PrimarySearch_ki.jsp?energyterm=kJ/mole&tag=r21&monomerid=50541649&enzyme=Dihydroorotate+dehydrogenase&column=ki&startPg=0&Increment=50&submit=Search

> <PubChem CID>
156016734

> <PubChem SID>
442143212

$$$$

  Mrv2115 07222212352D          

 29 31  0  0  0  0            999 V2000
    1.4289   -0.0000    0.0000 C   0  0  0  0  0  0  0  0  0  0  0  0
    0.7145   -0.4125    0.0000 N   0  0  0  0  0  0  0  0  0  0  0  0
    0.0000    0.0000    0.0000 N   0  0  0  0  0  0  0  0  0  0  0  0
   -0.7145   -0.4125    0.0000 C   0  0  0  0  0  0  0  0  0  0  0  0
   -1.4289    0.0000    0.0000 C   0  0  0  0  0  0  0  0  0  0  0  0
   -2.1434   -0.4125    0.0000 C   0  0  0  0  0  0  0  0  0  0  0  0
   -2.8579    0.0000    0.0000 C   0  0  0  0  0  0  0  0  0  0  0  0
   -2.8579    0.8250    0.0000 C   0  0  0  0  0  0  0  0  0  0  0  0
   -3.5724    1.2375    0.0000 C   0  0  0  0  0  0  0  0  0  0  0  0
   -4.2868    1.6500    0.0000 F   0  0  0  0  0  0  0  0  0  0  0  0
   -3.9849    0.5230    0.0000 F   0  0  0  0  0  0  0  0  0  0  0  0
   -3.1599    1.9520    0.0000 F   0  0  0  0  0  0  0  0  0  0  0  0
   -2.1434    1.2375    0.0000 C   0  0  0  0  0  0  0  0  0  0  0  0
   -1.4289    0.8250    0.0000 C   0  0  0  0  0  0  0  0  0  0  0  0
   -0.7145    1.2375    0.0000 C   0  0  0  0  0  0  0  0  0  0  0  0
    0.0000    0.8250    0.0000 O   0  0  0  0  0  0  0  0  0  0  0  0
   -0.7145    2.0625    0.0000 O   0  0  0  0  0  0  0  0  0  0  0  0
    0.7145   -1.2375    0.0000 C   0  0  0  0  0  0  0  0  0  0  0  0
    1.3819   -1.7224    0.0000 N   0  0  0  0  0  0  0  0  0  0  0  0
    1.1270   -2.5070    0.0000 C   0  0  0  0  0  0  0  0  0  0  0  0
    1.6119   -3.1745    0.0000 C   0  0  0  0  0  0  0  0  0  0  0  0
    2.4324   -3.0882    0.0000 C   0  0  0  0  0  0  0  0  0  0  0  0
    2.9173   -3.7557    0.0000 C   0  0  0  0  0  0  0  0  0  0  0  0
    2.5817   -4.5094    0.0000 C   0  0  0  0  0  0  0  0  0  0  0  0
    1.7613   -4.5956    0.0000 C   0  0  0  0  0  0  0  0  0  0  0  0
    1.2763   -3.9282    0.0000 C   0  0  0  0  0  0  0  0  0  0  0  0
    0.4559   -4.0144    0.0000 Cl  0  0  0  0  0  0  0  0  0  0  0  0
    0.3020   -2.5070    0.0000 C   0  0  0  0  0  0  0  0  0  0  0  0
    0.0470   -1.7224    0.0000 S   0  0  0  0  0  0  0  0  0  0  0  0
  1  2  1  0  0  0  0
  2  3  1  0  0  0  0
  3  4  2  0  0  0  0
  4  5  1  0  0  0  0
  5  6  4  0  0  0  0
  6  7  4  0  0  0  0
  7  8  4  0  0  0  0
  8  9  1  0  0  0  0
  9 10  1  0  0  0  0
  9 11  1  0  0  0  0
  9 12  1  0  0  0  0
  8 13  4  0  0  0  0
 13 14  4  0  0  0  0
  5 14  4  0  0  0  0
 14 15  1  0  0  0  0
 15 16  2  0  0  0  0
 15 17  1  0  0  0  0
  2 18  1  0  0  0  0
 18 19  4  0  0  0  0
 19 20  4  0  0  0  0
 20 21  1  0  0  0  0
 21 22  4  0  0  0  0
 22 23  4  0  0  0  0
 23 24  4  0  0  0  0
 24 25  4  0  0  0  0
 25 26  4  0  0  0  0
 21 26  4  0  0  0  0
 26 27  1  0  0  0  0
 20 28  4  0  0  0  0
 28 29  4  0  0  0  0
 18 29  4  0  0  0  0
M  END
> <IC50(uM)>
0.0868

> <Outcome>
1.0

> <BindingDB ID>
1001117

> <BindingDB MonomerID>
482803

> <BindingDB Ligand Name>
US10919869, No.  8

> <Curation/DataSource>
US Patent

> <Article DOI>
?

> <PMID>
?

> <Patent Number>
US10919869

> <Authors>
Li, H; Xu, Y; Wang, R; Zhao, Z; Song, W; Xu, L

> <Link to Ligand in BindingDB>
http://www.bindingdb.org/bind/chemsearch/marvin/MolStructure.jsp?monomerid=482803

> <Link to Ligand-Target Pair in BindingDB>
http://www.bindingdb.org/jsp/dbsearch/PrimarySearch_ki.jsp?energyterm=kJ/mole&tag=r21&monomerid=482803&enzyme=Dihydroorotate+dehydrogenase&column=ki&startPg=0&Increment=50&submit=Search

> <PubChem CID>
132157967

> <PubChem SID>
443551944

$$$$

  Mrv2115 07222212352D          

 28 31  0  0  0  0            999 V2000
    0.0000   -1.6500    0.0000 C   0  0  0  0  0  0  0  0  0  0  0  0
    0.7145   -1.2375    0.0000 C   0  0  0  0  0  0  0  0  0  0  0  0
    0.7145   -0.4125    0.0000 C   0  0  0  0  0  0  0  0  0  0  0  0
    0.0000    0.0000    0.0000 C   0  0  0  0  0  0  0  0  0  0  0  0
   -0.7145   -0.4125    0.0000 C   0  0  0  0  0  0  0  0  0  0  0  0
   -1.4289    0.0000    0.0000 C   0  0  0  0  0  0  0  0  0  0  0  0
   -1.4289    0.8250    0.0000 C   0  0  0  0  0  0  0  0  0  0  0  0
   -2.1434    1.2375    0.0000 C   0  0  0  0  0  0  0  0  0  0  0  0
   -2.8579    0.8250    0.0000 C   0  0  0  0  0  0  0  0  0  0  0  0
   -3.5724    1.2375    0.0000 C   0  0  0  0  0  0  0  0  0  0  0  0
   -3.5724    2.0625    0.0000 C   0  0  0  0  0  0  0  0  0  0  0  0
   -2.8579    2.4750    0.0000 C   0  0  0  0  0  0  0  0  0  0  0  0
   -2.1434    2.0625    0.0000 C   0  0  0  0  0  0  0  0  0  0  0  0
   -1.4289    2.4750    0.0000 F   0  0  0  0  0  0  0  0  0  0  0  0
   -0.7145    1.2375    0.0000 C   0  0  0  0  0  0  0  0  0  0  0  0
    0.0000    0.8250    0.0000 C   0  0  0  0  0  0  0  0  0  0  0  0
    1.4289    0.0000    0.0000 N   0  0  0  0  0  0  0  0  0  0  0  0
    2.1434   -0.4125    0.0000 C   0  0  0  0  0  0  0  0  0  0  0  0
    2.8579    0.0000    0.0000 C   0  0  0  0  0  0  0  0  0  0  0  0
    3.5724   -0.4125    0.0000 C   0  0  0  0  0  0  0  0  0  0  0  0
    3.5724   -1.2375    0.0000 C   0  0  0  0  0  0  0  0  0  0  0  0
    4.2868   -1.6500    0.0000 F   0  0  0  0  0  0  0  0  0  0  0  0
    2.8579   -1.6500    0.0000 C   0  0  0  0  0  0  0  0  0  0  0  0
    2.1434   -1.2375    0.0000 C   0  0  0  0  0  0  0  0  0  0  0  0
    1.4289   -1.6500    0.0000 C   0  0  0  0  0  0  0  0  0  0  0  0
    1.4289   -2.4750    0.0000 C   0  0  0  0  0  0  0  0  0  0  0  0
    0.7145   -2.8875    0.0000 O   0  0  0  0  0  0  0  0  0  0  0  0
    2.1434   -2.8875    0.0000 O   0  0  0  0  0  0  0  0  0  0  0  0
  1  2  1  0  0  0  0
  2  3  4  0  0  0  0
  3  4  1  0  0  0  0
  4  5  4  0  0  0  0
  5  6  4  0  0  0  0
  6  7  4  0  0  0  0
  7  8  1  0  0  0  0
  8  9  4  0  0  0  0
  9 10  4  0  0  0  0
 10 11  4  0  0  0  0
 11 12  4  0  0  0  0
 12 13  4  0  0  0  0
  8 13  4  0  0  0  0
 13 14  1  0  0  0  0
  7 15  4  0  0  0  0
 15 16  4  0  0  0  0
  4 16  4  0  0  0  0
  3 17  4  0  0  0  0
 17 18  4  0  0  0  0
 18 19  4  0  0  0  0
 19 20  4  0  0  0  0
 20 21  4  0  0  0  0
 21 22  1  0  0  0  0
 21 23  4  0  0  0  0
 23 24  4  0  0  0  0
 18 24  4  0  0  0  0
 24 25  4  0  0  0  0
  2 25  4  0  0  0  0
 25 26  1  0  0  0  0
 26 27  2  0  0  0  0
 26 28  1  0  0  0  0
M  END
> <IC50(uM)>
0.009532999999999996

> <Outcome>
1.0

> <BindingDB ID>
51370187; 51311345; 51282847; 51292541; 50311222; 50990482; 50565532; 50527773; 51338160; 51055873; 28075; 51126208; 29230; 1001134; 51055875; 50527770; 50355111; 51383904; 51064013; 50358228; 50107533

> <BindingDB MonomerID>
15339; 50069959

> <BindingDB Ligand Name>
6-fluoro-2-[4-(2-fluorophenyl)phenyl]-3-methyl-quinoline-4-carboxylic acid::6-fluoro-2-[4-(2-fluorophenyl)phenyl]-3-methylquinoline-4-carboxylic acid::Biphenquinate::Brequinar; Brequinar sodium::CHEMBL300058::Sodium; 6-fluoro-2-(2'-fluoro-biphenyl-4-yl)-3-methyl-quinoline-4-carboxylate::US10919869, Brequinar; Brequinar sodium::CHEMBL300058::Sodium; 6-fluoro-2-(2'-fluoro-biphenyl-4-yl)-3-methyl-quinoline-4-carboxylate

> <Curation/DataSource>
ChEMBL; Curated from the literature by BindingDB; US Patent

> <Article DOI>
?; 10.1016/j.bmcl.2019.01.038; 10.1016/j.ejmech.2019.02.018; 10.1016/j.ejmech.2019.111681; 10.1021/jm501446r; 10.1021/acs.jmedchem.8b00373; 10.1016/j.bmcl.2010.01.115; 10.1021/acsmedchemlett.6b00316; 10.1021/acs.jmedchem.0c00512; 10.1021/jm301848w; 10.1021/jm0506975; 10.1021/acs.jmedchem.7b01862; 10.1016/j.bmcl.2005.10.011; 10.1021/acs.jmedchem.5b00606; 10.1021/ml300464h; 10.1016/j.bmc.2015.05.051; 10.1016/j.ejmech.2014.05.064

> <PMID>
33007394; 30738663; 30776695; 31557612; 25558988; 29939742; 20153645; 27994748; 32496056; 23452331; 16480261; 29727569; 16246558; ?; 26079043; 33007554; 23930152; 26088338; 24929289

> <Patent Number>
?; US10919869

> <Authors>
DeRatt, LG; Christine Pietsch, E; Tanner, A; Shaffer, P; Jacoby, E; Wang, W; Kazmi, F; Zhang, X; Attar, RM; Edwards, JP; Kuduk, SD; Vyas, VK; Qureshi, G; Oza, D; Patel, H; Parmar, K; Patel, P; Ghate, MD; Calil, FA; David, JS; Chiappetta, ERC; Fumagalli, F; Mello, RB; Leite, FHA; Castilho, MS; Emery, FS; Nonato, MC; Boschi, D; Pippione, AC; Sainas, S; Lolli, ML; Munier-Lehmann, H; Lucas-Hourani, M; Guillou, S; Helynck, O; Zanghi, G; Noel, A; Tangy, F; Vidalain, PO; Janin, YL; Sainas, S; Pippione, AC; Lupino, E; Giorgis, M; Circosta, P; Gaidano, V; Goyal, P; Bonanni, D; Rolando, B; Cignetti, A; Ducime, A; Andersson, M; J??rv??, M; Friemann, R; Piccinini, M; Ramondetti, C; Buccinn??, B; Al-Karadaghi, S; Boschi, D; Saglio, G; Lolli, ML; McLean, LR; Zhang, Y; Degnen, W; Peppard, J; Cabel, D; Zou, C; Tsay, JT; Subramaniam, A; Vaz, RJ; Li, Y; Lewis, TA; Sykes, DB; Law, JM; Mu??oz, B; Rustiguel, JK; Nonato, MC; Scadden, DT; Schreiber, SL; Zuo, Z; Liu, X; Qian, X; Zeng, T; Sang, N; Liu, H; Zhou, Y; Tao, L; Zhou, X; Su, N; Yu, Y; Chen, Q; Luo, Y; Zhao, Y; Munier-Lehmann, H; Vidalain, PO; Tangy, F; Janin, YL; Baumgartner, R; Walloschek, M; Kralik, M; Gotschlich, A; Tasler, S; Mies, J; Leban, J; Madak, JT; Cuthbertson, CR; Miyata, Y; Tamura, S; Petrunak, EM; Stuckey, JA; Han, Y; He, M; Sun, D; Showalter, HD; Neamati, N; Leban, J; Kralik, M; Mies, J; Baumgartner, R; Gassen, M; Tasler, S; Li, H; Xu, Y; Wang, R; Zhao, Z; Song, W; Xu, L; Lucas-Hourani, M; Munier-Lehmann, H; El Mazouni, F; Malmquist, NA; Harpon, J; Coutant, EP; Guillou, S; Helynck, O; Noel, A; Scherf, A; Phillips, MA; Tangy, F; Vidalain, PO; Janin, YL; Bouzriba, C; Larcher, L; Gagn??-Boulet, M; Fortin, S; Das, P; Deng, X; Zhang, L; Roth, MG; Fontoura, BM; Phillips, MA; De Brabander, JK; Abdullah, I; Chee, CF; Lee, YK; Thunuguntla, SS; Satish Reddy, K; Nellore, K; Antony, T; Verma, J; Mun, KW; Othman, S; Subramanya, H; Rahman, NA; Vyas, VK; Variya, B; Ghate, MD

> <Link to Ligand in BindingDB>
http://www.bindingdb.org/bind/chemsearch/marvin/MolStructure.jsp?monomerid=15339; http://www.bindingdb.org/bind/chemsearch/marvin/MolStructure.jsp?monomerid=50069959

> <Link to Ligand-Target Pair in BindingDB>
http://www.bindingdb.org/jsp/dbsearch/PrimarySearch_ki.jsp?energyterm=kJ/mole&tag=r21&monomerid=15339&enzyme=Dihydroorotate+dehydrogenase&column=ki&startPg=0&Increment=50&submit=Search; http://www.bindingdb.org/jsp/dbsearch/PrimarySearch_ki.jsp?energyterm=kJ/mole&tag=r21&monomerid=50069959&enzyme=Dihydroorotate+dehydrogenase&column=ki&startPg=0&Increment=50&submit=Search; http://www.bindingdb.org/jsp/dbsearch/PrimarySearch_ki.jsp?energyterm=kJ/mole&tag=r21&monomerid=15339&enzyme=Dihydroorotate+Dehydrogenase+%28DHODH%29&column=ki&startPg=0&Increment=50&submit=Search

> <PubChem CID>
57030; 86309017

> <PubChem SID>
46515644; 103963921

$$$$

  Mrv2115 07222212352D          

 25 27  0  0  0  0            999 V2000
    3.8459    5.7797    0.0000 C   0  0  0  0  0  0  0  0  0  0  0  0
    4.1814    6.5334    0.0000 O   0  0  0  0  0  0  0  0  0  0  0  0
    5.0019    6.6196    0.0000 C   0  0  0  0  0  0  0  0  0  0  0  0
    5.3375    7.3733    0.0000 C   0  0  0  0  0  0  0  0  0  0  0  0
    6.1580    7.4595    0.0000 C   0  0  0  0  0  0  0  0  0  0  0  0
    6.4935    8.2132    0.0000 C   0  0  0  0  0  0  0  0  0  0  0  0
    6.8291    8.9669    0.0000 F   0  0  0  0  0  0  0  0  0  0  0  0
    5.7398    8.5488    0.0000 F   0  0  0  0  0  0  0  0  0  0  0  0
    7.2472    7.8777    0.0000 F   0  0  0  0  0  0  0  0  0  0  0  0
    6.6429    6.7921    0.0000 C   0  0  0  0  0  0  0  0  0  0  0  0
    6.3073    6.0384    0.0000 C   0  0  0  0  0  0  0  0  0  0  0  0
    5.4868    5.9522    0.0000 C   0  0  0  0  0  0  0  0  0  0  0  0
    5.1513    5.1985    0.0000 C   0  0  0  0  0  0  0  0  0  0  0  0
    5.6362    4.5311    0.0000 C   0  0  0  0  0  0  0  0  0  0  0  0
    6.4612    4.5311    0.0000 C   0  0  0  0  0  0  0  0  0  0  0  0
    6.7161    3.7465    0.0000 N   0  0  0  0  0  0  0  0  0  0  0  0
    6.0487    3.2615    0.0000 C   0  0  0  0  0  0  0  0  0  0  0  0
    6.0487    2.4365    0.0000 C   0  0  0  0  0  0  0  0  0  0  0  0
    5.3342    2.0240    0.0000 O   0  0  0  0  0  0  0  0  0  0  0  0
    6.7632    2.0240    0.0000 N   0  0  0  0  0  0  0  0  0  0  0  0
    6.7632    1.1990    0.0000 C   0  0  0  0  0  0  0  0  0  0  0  0
    7.1757    0.4846    0.0000 C   0  0  0  0  0  0  0  0  0  0  0  0
    6.3507    0.4846    0.0000 C   0  0  0  0  0  0  0  0  0  0  0  0
    5.3813    3.7465    0.0000 C   0  0  0  0  0  0  0  0  0  0  0  0
    4.5966    3.4915    0.0000 C   0  0  0  0  0  0  0  0  0  0  0  0
  1  2  1  0  0  0  0
  2  3  1  0  0  0  0
  3  4  4  0  0  0  0
  4  5  4  0  0  0  0
  5  6  1  0  0  0  0
  6  7  1  0  0  0  0
  6  8  1  0  0  0  0
  6  9  1  0  0  0  0
  5 10  4  0  0  0  0
 10 11  4  0  0  0  0
 11 12  4  0  0  0  0
  3 12  4  0  0  0  0
 12 13  1  0  0  0  0
 13 14  1  0  0  0  0
 14 15  4  0  0  0  0
 15 16  4  0  0  0  0
 16 17  4  0  0  0  0
 17 18  1  0  0  0  0
 18 19  2  0  0  0  0
 18 20  1  0  0  0  0
 20 21  1  0  0  0  0
 21 22  1  0  0  0  0
 22 23  1  0  0  0  0
 21 23  1  0  0  0  0
 17 24  4  0  0  0  0
 14 24  4  0  0  0  0
 24 25  1  0  0  0  0
M  STY  1   1 DAT
M  SAL   1  1  16
M  SDT   1 MRV_IMPLICIT_H                                        
M  SDD   1     0.5304   -0.4125    DR    ALL  0       0  
M  SED   1 IMPL_H1
M  END
> <IC50(uM)>
100.0

> <Outcome>
0.0

> <BindingDB ID>
51330112

> <BindingDB MonomerID>
50538360

> <BindingDB Ligand Name>
CHEMBL4642065

> <Curation/DataSource>
ChEMBL

> <Article DOI>
10.1021/acs.jmedchem.0c00311

> <PMID>
32248693

> <Patent Number>
?

> <Authors>
Kokkonda, S; Deng, X; White, KL; El Mazouni, F; White, J; Shackleford, DM; Katneni, K; Chiu, FCK; Barker, H; McLaren, J; Crighton, E; Chen, G; Angulo-Barturen, I; Jimenez-Diaz, MB; Ferrer, S; Huertas-Valentin, L; Martinez-Martinez, MS; Lafuente-Monasterio, MJ; Chittimalla, R; Shahi, SP; Wittlin, S; Waterson, D; Burrows, JN; Matthews, D; Tomchick, D; Rathod, PK; Palmer, MJ; Charman, SA; Phillips, MA

> <Link to Ligand in BindingDB>
http://www.bindingdb.org/bind/chemsearch/marvin/MolStructure.jsp?monomerid=50538360

> <Link to Ligand-Target Pair in BindingDB>
http://www.bindingdb.org/jsp/dbsearch/PrimarySearch_ki.jsp?energyterm=kJ/mole&tag=r21&monomerid=50538360&enzyme=Dihydroorotate+dehydrogenase&column=ki&startPg=0&Increment=50&submit=Search

> <PubChem CID>
156016197

> <PubChem SID>
442139923

$$$$

  Mrv2115 07222212352D          

 27 29  0  0  0  0            999 V2000
    4.0668    2.3479    0.0000 C   0  0  0  0  0  0  0  0  0  0  0  0
    3.3523    1.9354    0.0000 C   0  0  0  0  0  0  0  0  0  0  0  0
    3.3523    1.1104    0.0000 C   0  0  0  0  0  0  0  0  0  0  0  0
    2.6378    0.6979    0.0000 C   0  0  0  0  0  0  0  0  0  0  0  0
    2.6378   -0.1271    0.0000 N   0  0  0  0  0  0  0  0  0  0  0  0
    3.3523   -0.5396    0.0000 C   0  0  0  0  0  0  0  0  0  0  0  0
    4.0668   -0.1271    0.0000 C   0  0  0  0  0  0  0  0  0  0  0  0
    4.7812   -0.5396    0.0000 C   0  0  0  0  0  0  0  0  0  0  0  0
    4.7812   -1.3646    0.0000 C   0  0  0  0  0  0  0  0  0  0  0  0
    5.4957   -1.7771    0.0000 S   0  0  0  0  0  0  0  0  0  0  0  0
    6.2102   -2.1896    0.0000 F   0  0  0  0  0  0  0  0  0  0  0  0
    4.7812   -2.1896    0.0000 F   0  0  0  0  0  0  0  0  0  0  0  0
    5.4957   -2.6021    0.0000 F   0  0  0  0  0  0  0  0  0  0  0  0
    6.2102   -1.3646    0.0000 F   0  0  0  0  0  0  0  0  0  0  0  0
    5.4957   -0.9521    0.0000 F   0  0  0  0  0  0  0  0  0  0  0  0
    4.0668   -1.7771    0.0000 C   0  0  0  0  0  0  0  0  0  0  0  0
    3.3523   -1.3646    0.0000 C   0  0  0  0  0  0  0  0  0  0  0  0
    1.9233    1.1104    0.0000 N   0  0  0  0  0  0  0  0  0  0  0  0
    1.1387    0.8555    0.0000 N   0  0  0  0  0  0  0  0  0  0  0  0
    0.6538    1.5229    0.0000 C   0  0  0  0  0  0  0  0  0  0  0  0
   -0.1712    1.5229    0.0000 C   0  0  0  0  0  0  0  0  0  0  0  0
   -0.9962    1.5229    0.0000 F   0  0  0  0  0  0  0  0  0  0  0  0
   -0.1712    2.3479    0.0000 F   0  0  0  0  0  0  0  0  0  0  0  0
   -0.1712    0.6979    0.0000 F   0  0  0  0  0  0  0  0  0  0  0  0
    1.1387    2.1904    0.0000 N   0  0  0  0  0  0  0  0  0  0  0  0
    1.9233    1.9354    0.0000 C   0  0  0  0  0  0  0  0  0  0  0  0
    2.6378    2.3479    0.0000 N   0  0  0  0  0  0  0  0  0  0  0  0
  1  2  1  0  0  0  0
  2  3  4  0  0  0  0
  3  4  4  0  0  0  0
  4  5  1  0  0  0  0
  5  6  1  0  0  0  0
  6  7  4  0  0  0  0
  7  8  4  0  0  0  0
  8  9  4  0  0  0  0
  9 10  1  0  0  0  0
 10 11  1  0  0  0  0
 10 12  1  0  0  0  0
 10 13  1  0  0  0  0
 10 14  1  0  0  0  0
 10 15  1  0  0  0  0
  9 16  4  0  0  0  0
 16 17  4  0  0  0  0
  6 17  4  0  0  0  0
  4 18  4  0  0  0  0
 18 19  4  0  0  0  0
 19 20  4  0  0  0  0
 20 21  1  0  0  0  0
 21 22  1  0  0  0  0
 21 23  1  0  0  0  0
 21 24  1  0  0  0  0
 20 25  4  0  0  0  0
 25 26  4  0  0  0  0
 18 26  4  0  0  0  0
 26 27  4  0  0  0  0
  2 27  4  0  0  0  0
M  END
> <IC50(uM)>
41.0

> <Outcome>
0.0

> <BindingDB ID>
50720154

> <BindingDB MonomerID>
50365224

> <BindingDB Ligand Name>
CHEMBL1956291::US9238653, Table 5, Compound 29

> <Curation/DataSource>
ChEMBL

> <Article DOI>
10.1021/jm200592f

> <PMID>
21696174

> <Patent Number>
?

> <Authors>
Coteron, JM; Marco, M; Esquivias, J; Deng, X; White, KL; White, J; Koltun, M; El Mazouni, F; Kokkonda, S; Katneni, K; Bhamidipati, R; Shackleford, DM; Angulo-Barturen, I; Ferrer, SB; Jimenez-Diaz, MB; Gamo, FJ; Goldsmith, EJ; Charman, WN; Bathurst, I; Floyd, D; Matthews, D; Burrows, JN; Rathod, PK; Charman, SA; Phillips, MA

> <Link to Ligand in BindingDB>
http://www.bindingdb.org/bind/chemsearch/marvin/MolStructure.jsp?monomerid=50365224

> <Link to Ligand-Target Pair in BindingDB>
http://www.bindingdb.org/jsp/dbsearch/PrimarySearch_ki.jsp?energyterm=kJ/mole&tag=r21&monomerid=50365224&enzyme=Dihydroorotate+dehydrogenase&column=ki&startPg=0&Increment=50&submit=Search

> <PubChem CID>
51349275

> <PubChem SID>
136969286

$$$$

  Mrv2115 07222212352D          

 36 38  0  0  0  0            999 V2000
    0.7145   -3.7125    0.0000 C   0  0  0  0  0  0  0  0  0  0  0  0
    1.4289   -4.1250    0.0000 C   0  0  0  0  0  0  0  0  0  0  0  0
    2.1434   -3.7125    0.0000 C   0  0  0  0  0  0  0  0  0  0  0  0
    2.8579   -4.1250    0.0000 C   0  0  0  0  0  0  0  0  0  0  0  0
    2.8579   -4.9500    0.0000 C   0  0  0  0  0  0  0  0  0  0  0  0
    3.5724   -3.7125    0.0000 O   0  0  0  0  0  0  0  0  0  0  0  0
    3.5724   -2.8875    0.0000 C   0  0  0  0  0  0  0  0  0  0  0  0
    2.8579   -2.4750    0.0000 C   0  0  0  0  0  0  0  0  0  0  0  0
    2.8579   -1.6500    0.0000 C   0  0  0  0  0  0  0  0  0  0  0  0
    2.1434   -1.2375    0.0000 N   0  0  0  0  0  0  0  0  0  0  0  0
    1.3897   -1.5731    0.0000 N   0  0  0  0  0  0  0  0  0  0  0  0
    0.8377   -0.9600    0.0000 C   0  0  0  0  0  0  0  0  0  0  0  0
    0.0172   -1.0462    0.0000 C   0  0  0  0  0  0  0  0  0  0  0  0
   -0.8033   -1.1324    0.0000 C   0  0  0  0  0  0  0  0  0  0  0  0
    0.1035   -1.8667    0.0000 C   0  0  0  0  0  0  0  0  0  0  0  0
   -0.0690   -0.2257    0.0000 O   0  0  0  0  0  0  0  0  0  0  0  0
    1.2502   -0.2455    0.0000 N   0  0  0  0  0  0  0  0  0  0  0  0
    0.9146    0.5082    0.0000 C   0  0  0  0  0  0  0  0  0  0  0  0
    2.0572   -0.4170    0.0000 C   0  0  0  0  0  0  0  0  0  0  0  0
    2.6703    0.1350    0.0000 O   0  0  0  0  0  0  0  0  0  0  0  0
    3.5724   -1.2375    0.0000 C   0  0  0  0  0  0  0  0  0  0  0  0
    3.5724   -0.4125    0.0000 F   0  0  0  0  0  0  0  0  0  0  0  0
    4.2868   -1.6500    0.0000 C   0  0  0  0  0  0  0  0  0  0  0  0
    4.2868   -2.4750    0.0000 C   0  0  0  0  0  0  0  0  0  0  0  0
    5.0013   -2.8875    0.0000 C   0  0  0  0  0  0  0  0  0  0  0  0
    5.7158   -2.4750    0.0000 O   0  0  0  0  0  0  0  0  0  0  0  0
    5.0013   -3.7125    0.0000 N   0  0  0  0  0  0  0  0  0  0  0  0
    5.7158   -4.1250    0.0000 C   0  0  0  0  0  0  0  0  0  0  0  0
    6.4302   -3.7125    0.0000 C   0  0  0  0  0  0  0  0  0  0  0  0
    6.4302   -2.8875    0.0000 C   0  0  0  0  0  0  0  0  0  0  0  0
    7.1447   -4.1250    0.0000 C   0  0  0  0  0  0  0  0  0  0  0  0
    7.1447   -4.9500    0.0000 C   0  0  0  0  0  0  0  0  0  0  0  0
    6.4302   -5.3625    0.0000 N   0  0  0  0  0  0  0  0  0  0  0  0
    5.7158   -4.9500    0.0000 C   0  0  0  0  0  0  0  0  0  0  0  0
    5.0013   -5.3625    0.0000 O   0  0  0  0  0  0  0  0  0  0  0  0
    4.2868   -4.9500    0.0000 C   0  0  0  0  0  0  0  0  0  0  0  0
  1  2  1  0  0  0  0
  2  3  1  0  0  0  0
  3  4  1  0  0  0  0
  4  5  1  0  0  0  0
  4  6  1  0  0  0  0
  6  7  1  0  0  0  0
  7  8  4  0  0  0  0
  8  9  4  0  0  0  0
  9 10  1  0  0  0  0
 10 11  4  0  0  0  0
 11 12  4  0  0  0  0
 12 13  1  0  0  0  0
 13 14  1  0  0  0  0
 13 15  1  0  0  0  0
 13 16  1  0  0  0  0
 12 17  4  0  0  0  0
 17 18  1  0  0  0  0
 17 19  4  0  0  0  0
 10 19  4  0  0  0  0
 19 20  2  0  0  0  0
  9 21  4  0  0  0  0
 21 22  1  0  0  0  0
 21 23  4  0  0  0  0
 23 24  4  0  0  0  0
  7 24  4  0  0  0  0
 24 25  1  0  0  0  0
 25 26  2  0  0  0  0
 25 27  1  0  0  0  0
 27 28  1  0  0  0  0
 28 29  4  0  0  0  0
 29 30  1  0  0  0  0
 29 31  4  0  0  0  0
 31 32  4  0  0  0  0
 32 33  4  0  0  0  0
 33 34  4  0  0  0  0
 28 34  4  0  0  0  0
 34 35  1  0  0  0  0
 35 36  1  0  0  0  0
M  END
> <IC50(uM)>
0.015

> <Outcome>
1.0

> <BindingDB ID>
972598; 1098752

> <BindingDB MonomerID>
470477

> <BindingDB Ligand Name>
5-fluoro-4-[3-(2-hydroxypropan-2-yl)-4-methyl-5-oxo-4,5-dihydro-1H-1,2,4-triazol-1-yl]-N-(2-methoxy-4-methylpyridin-3-yl)-2-[(2S)-pentan-2-yloxy]benzamide::US10815215, Example 140; 5-fluoro-4-[3-(2-hydroxypropan-2-yl)-4-methyl-5-oxo-4,5-dihydro-1H-1,2,4-triazol-1-yl]-N-(2-methoxy-4-methylpyridin-3-yl)-2-[(2S)-pentan-2-yloxy]benzamide::US10815215, Example 140::US11130745, Example 140

> <Curation/DataSource>
US Patent

> <Article DOI>
?

> <PMID>
?

> <Patent Number>
US10815215; US11130745

> <Authors>
Gradl, SN; Nguyen, D; Eis, K; Gunther, J; Stellfeld, T; Janzer, A; Christian, S; Muller, T; Sheikh, SE; Zhou, HJ; Zhao, C; Sykes, DB; Ferrara, SJ; Liu, K; Krober, M; Merz, C; Niehues, M; Schafer, M; Zimmermann, K; Nising, CF; Gradl, SN; Nguyen, D; Eis, K; Gunther, J; Stellfeld, T; Janzer, A; Christian, S; Muller, T; Sheikh, SE; Sykes, DB; Ferrara, SJ; Krober, M; Merz, C; Niehues, M; Schafer, M; Zimmermann, K; Nising, CF

> <Link to Ligand in BindingDB>
http://www.bindingdb.org/bind/chemsearch/marvin/MolStructure.jsp?monomerid=470477

> <Link to Ligand-Target Pair in BindingDB>
http://www.bindingdb.org/jsp/dbsearch/PrimarySearch_ki.jsp?energyterm=kJ/mole&tag=r21&monomerid=470477&enzyme=Dihydroorotate+dehydrogenase&column=ki&startPg=0&Increment=50&submit=Search

> <PubChem CID>
134470101

> <PubChem SID>
441609654

$$$$

  Mrv2115 07222212352D          

 21 22  0  0  0  0            999 V2000
    2.1434   -0.4125    0.0000 O   0  0  0  0  0  0  0  0  0  0  0  0
    2.1434   -1.2375    0.0000 C   0  0  0  0  0  0  0  0  0  0  0  0
    1.4289   -1.6500    0.0000 N   0  0  0  0  0  0  0  0  0  0  0  0
    1.4289   -2.4750    0.0000 C   0  0  0  0  0  0  0  0  0  0  0  0
    2.1434   -2.8875    0.0000 C   0  0  0  0  0  0  0  0  0  0  0  0
    2.1434   -3.7125    0.0000 C   0  0  0  0  0  0  0  0  0  0  0  0
    2.8579   -4.1250    0.0000 Cl  0  0  0  0  0  0  0  0  0  0  0  0
    1.4289   -4.1250    0.0000 C   0  0  0  0  0  0  0  0  0  0  0  0
    0.7145   -3.7125    0.0000 C   0  0  0  0  0  0  0  0  0  0  0  0
    0.0000   -4.1250    0.0000 Cl  0  0  0  0  0  0  0  0  0  0  0  0
    0.7145   -2.8875    0.0000 C   0  0  0  0  0  0  0  0  0  0  0  0
    2.8579   -1.6500    0.0000 N   0  0  0  0  0  0  0  0  0  0  0  0
    3.5724   -1.2375    0.0000 C   0  0  0  0  0  0  0  0  0  0  0  0
    3.5724   -0.4125    0.0000 C   0  0  0  0  0  0  0  0  0  0  0  0
    4.2868   -0.0000    0.0000 C   0  0  0  0  0  0  0  0  0  0  0  0
    5.0013   -0.4125    0.0000 C   0  0  0  0  0  0  0  0  0  0  0  0
    5.0013   -1.2375    0.0000 C   0  0  0  0  0  0  0  0  0  0  0  0
    4.2868   -1.6500    0.0000 C   0  0  0  0  0  0  0  0  0  0  0  0
    4.2868   -2.4750    0.0000 C   0  0  0  0  0  0  0  0  0  0  0  0
    3.5724   -2.8875    0.0000 O   0  0  0  0  0  0  0  0  0  0  0  0
    5.0013   -2.8875    0.0000 O   0  0  0  0  0  0  0  0  0  0  0  0
  1  2  2  0  0  0  0
  2  3  1  0  0  0  0
  3  4  1  0  0  0  0
  4  5  4  0  0  0  0
  5  6  4  0  0  0  0
  6  7  1  0  0  0  0
  6  8  4  0  0  0  0
  8  9  4  0  0  0  0
  9 10  1  0  0  0  0
  9 11  4  0  0  0  0
  4 11  4  0  0  0  0
  2 12  1  0  0  0  0
 12 13  1  0  0  0  0
 13 14  4  0  0  0  0
 14 15  4  0  0  0  0
 15 16  4  0  0  0  0
 16 17  4  0  0  0  0
 17 18  4  0  0  0  0
 13 18  4  0  0  0  0
 18 19  1  0  0  0  0
 19 20  2  0  0  0  0
 19 21  1  0  0  0  0
M  END
> <IC50(uM)>
0.7

> <Outcome>
1.0

> <BindingDB ID>
50565528

> <BindingDB MonomerID>
50313600

> <BindingDB Ligand Name>
2-(3-(3,5-dichlorophenyl)ureido)benzoic acid::2-{[(3,5-dichlorophenyl)carbamoyl]amino}benzoic acid::CHEMBL1088742

> <Curation/DataSource>
ChEMBL

> <Article DOI>
10.1016/j.bmcl.2010.01.115

> <PMID>
20153645

> <Patent Number>
?

> <Authors>
McLean, LR; Zhang, Y; Degnen, W; Peppard, J; Cabel, D; Zou, C; Tsay, JT; Subramaniam, A; Vaz, RJ; Li, Y

> <Link to Ligand in BindingDB>
http://www.bindingdb.org/bind/chemsearch/marvin/MolStructure.jsp?monomerid=50313600

> <Link to Ligand-Target Pair in BindingDB>
http://www.bindingdb.org/jsp/dbsearch/PrimarySearch_ki.jsp?energyterm=kJ/mole&tag=r21&monomerid=50313600&enzyme=Dihydroorotate+dehydrogenase&column=ki&startPg=0&Increment=50&submit=Search

> <PubChem CID>
44631845

> <PubChem SID>
104147961

$$$$

  Mrv2115 07222212352D          

 34 37  0  0  0  0            999 V2000
   -3.1034    2.1599    0.0000 C   0  0  0  0  0  0  0  0  0  0  0  0
   -2.6909    1.4455    0.0000 C   0  0  0  0  0  0  0  0  0  0  0  0
   -3.1034    0.7310    0.0000 O   0  0  0  0  0  0  0  0  0  0  0  0
   -2.6909    0.0165    0.0000 C   0  0  0  0  0  0  0  0  0  0  0  0
   -1.8659    0.0165    0.0000 C   0  0  0  0  0  0  0  0  0  0  0  0
   -1.4534   -0.6979    0.0000 C   0  0  0  0  0  0  0  0  0  0  0  0
   -0.6284   -0.6979    0.0000 N   0  0  0  0  0  0  0  0  0  0  0  0
   -0.1435   -1.3654    0.0000 N   0  0  0  0  0  0  0  0  0  0  0  0
    0.6411   -1.1104    0.0000 C   0  0  0  0  0  0  0  0  0  0  0  0
    0.6411   -0.2854    0.0000 N   0  0  0  0  0  0  0  0  0  0  0  0
   -0.1435   -0.0305    0.0000 C   0  0  0  0  0  0  0  0  0  0  0  0
   -0.3984    0.7541    0.0000 O   0  0  0  0  0  0  0  0  0  0  0  0
    1.3556    0.1271    0.0000 C   0  0  0  0  0  0  0  0  0  0  0  0
    2.0701   -0.2854    0.0000 C   0  0  0  0  0  0  0  0  0  0  0  0
    2.0701   -1.1104    0.0000 C   0  0  0  0  0  0  0  0  0  0  0  0
    1.3556   -1.5229    0.0000 C   0  0  0  0  0  0  0  0  0  0  0  0
   -1.8659   -1.4124    0.0000 C   0  0  0  0  0  0  0  0  0  0  0  0
   -2.6909   -1.4124    0.0000 C   0  0  0  0  0  0  0  0  0  0  0  0
   -3.1034   -0.6979    0.0000 C   0  0  0  0  0  0  0  0  0  0  0  0
   -3.9284   -0.6979    0.0000 C   0  0  0  0  0  0  0  0  0  0  0  0
   -4.3409    0.0165    0.0000 O   0  0  0  0  0  0  0  0  0  0  0  0
   -4.3409   -1.4124    0.0000 N   0  0  0  0  0  0  0  0  0  0  0  0
   -5.1659   -1.4124    0.0000 C   0  0  0  0  0  0  0  0  0  0  0  0
   -5.5784   -2.1269    0.0000 C   0  0  0  0  0  0  0  0  0  0  0  0
   -5.1659   -2.8414    0.0000 F   0  0  0  0  0  0  0  0  0  0  0  0
   -6.4034   -2.1269    0.0000 C   0  0  0  0  0  0  0  0  0  0  0  0
   -6.8159   -1.4124    0.0000 C   0  0  0  0  0  0  0  0  0  0  0  0
   -6.4034   -0.6979    0.0000 C   0  0  0  0  0  0  0  0  0  0  0  0
   -5.5784   -0.6979    0.0000 C   0  0  0  0  0  0  0  0  0  0  0  0
   -5.1659    0.0165    0.0000 F   0  0  0  0  0  0  0  0  0  0  0  0
   -1.8659    1.4455    0.0000 C   0  0  0  0  0  0  0  0  0  0  0  0
   -1.8659    0.6205    0.0000 F   0  0  0  0  0  0  0  0  0  0  0  0
   -1.8659    2.2705    0.0000 F   0  0  0  0  0  0  0  0  0  0  0  0
   -1.0409    1.4455    0.0000 F   0  0  0  0  0  0  0  0  0  0  0  0
  1  2  1  0  0  0  0
  2  3  1  0  0  0  0
  3  4  1  0  0  0  0
  4  5  4  0  0  0  0
  5  6  4  0  0  0  0
  6  7  1  0  0  0  0
  7  8  4  0  0  0  0
  8  9  4  0  0  0  0
  9 10  4  0  0  0  0
 10 11  4  0  0  0  0
  7 11  4  0  0  0  0
 11 12  2  0  0  0  0
 10 13  1  0  0  0  0
 13 14  1  0  0  0  0
 14 15  1  0  0  0  0
 15 16  1  0  0  0  0
  9 16  1  0  0  0  0
  6 17  4  0  0  0  0
 17 18  4  0  0  0  0
 18 19  4  0  0  0  0
  4 19  4  0  0  0  0
 19 20  1  0  0  0  0
 20 21  2  0  0  0  0
 20 22  1  0  0  0  0
 22 23  1  0  0  0  0
 23 24  4  0  0  0  0
 24 25  1  0  0  0  0
 24 26  4  0  0  0  0
 26 27  4  0  0  0  0
 27 28  4  0  0  0  0
 28 29  4  0  0  0  0
 23 29  4  0  0  0  0
 29 30  1  0  0  0  0
  2 31  1  0  0  0  0
 31 32  1  0  0  0  0
 31 33  1  0  0  0  0
 31 34  1  0  0  0  0
M  END
> <IC50(uM)>
0.016

> <Outcome>
1.0

> <BindingDB ID>
1020660

> <BindingDB MonomerID>
490589

> <BindingDB Ligand Name>
N-(2,6-difluorophenyl)-4-(3-oxo-5,6,7,8-tetrahydro[1,2,4]triazolo[4,3-a]pyridin-2(3H)-yl)-2-{[(2S)-1,1,1-trifluoropropan-2-yl]oxy}benzamide::US10968216, Example 257

> <Curation/DataSource>
US Patent

> <Article DOI>
?

> <PMID>
?

> <Patent Number>
US10968216

> <Authors>
Gradl, SN; Nguyen, D; Eis, K; Gunther, J; Stellfeld, T; Janzer, A; Christian, S; Mueller, T; Sheikh, SE; Zhou, HJ; Zhao, C; Sykes, DB; Ferrara, SJ; Liu, K; Herbert, SA; Merz, C; Niehues, M; Nising, CF; Schafer, M; Zimmermann, K; Knablein, J; Thede, K; Faupel, T

> <Link to Ligand in BindingDB>
http://www.bindingdb.org/bind/chemsearch/marvin/MolStructure.jsp?monomerid=490589

> <Link to Ligand-Target Pair in BindingDB>
http://www.bindingdb.org/jsp/dbsearch/PrimarySearch_ki.jsp?energyterm=kJ/mole&tag=r21&monomerid=490589&enzyme=Dihydroorotate+dehydrogenase&column=ki&startPg=0&Increment=50&submit=Search

> <PubChem CID>
134474058

> <PubChem SID>
447117315

$$$$

  Mrv2115 07222212352D          

 29 31  0  0  0  0            999 V2000
    2.1434   -2.8875    0.0000 C   0  0  0  0  0  0  0  0  0  0  0  0
    2.1434   -3.7125    0.0000 C   0  0  0  0  0  0  0  0  0  0  0  0
    1.4289   -4.1250    0.0000 C   0  0  0  0  0  0  0  0  0  0  0  0
    1.4289   -4.9500    0.0000 C   0  0  0  0  0  0  0  0  0  0  0  0
    2.1434   -5.3625    0.0000 C   0  0  0  0  0  0  0  0  0  0  0  0
    2.1434   -6.1875    0.0000 N   0  0  0  0  0  0  0  0  0  0  0  0
    1.4289   -6.6000    0.0000 C   0  0  0  0  0  0  0  0  0  0  0  0
    1.4289   -7.4250    0.0000 C   0  0  0  0  0  0  0  0  0  0  0  0
    0.7145   -7.8375    0.0000 N   0  0  0  0  0  0  0  0  0  0  0  0
    0.0000   -7.4250    0.0000 C   0  0  0  0  0  0  0  0  0  0  0  0
   -0.7145   -7.8375    0.0000 C   0  0  0  0  0  0  0  0  0  0  0  0
   -0.7145   -8.6625    0.0000 C   0  0  0  0  0  0  0  0  0  0  0  0
   -1.4289   -9.0750    0.0000 C   0  0  0  0  0  0  0  0  0  0  0  0
   -2.1434   -8.6625    0.0000 C   0  0  0  0  0  0  0  0  0  0  0  0
   -2.1434   -7.8375    0.0000 C   0  0  0  0  0  0  0  0  0  0  0  0
   -2.8579   -7.4250    0.0000 C   0  0  0  0  0  0  0  0  0  0  0  0
   -3.5724   -7.8375    0.0000 O   0  0  0  0  0  0  0  0  0  0  0  0
   -2.8579   -6.6000    0.0000 N   0  0  0  0  0  0  0  0  0  0  0  0
   -3.5724   -6.1875    0.0000 C   0  0  0  0  0  0  0  0  0  0  0  0
   -2.1434   -6.1875    0.0000 C   0  0  0  0  0  0  0  0  0  0  0  0
   -1.4289   -7.4250    0.0000 C   0  0  0  0  0  0  0  0  0  0  0  0
    0.0000   -6.6000    0.0000 C   0  0  0  0  0  0  0  0  0  0  0  0
   -0.7145   -6.1875    0.0000 C   0  0  0  0  0  0  0  0  0  0  0  0
    0.7145   -6.1875    0.0000 C   0  0  0  0  0  0  0  0  0  0  0  0
    2.8579   -4.9500    0.0000 C   0  0  0  0  0  0  0  0  0  0  0  0
    3.5724   -5.3625    0.0000 C   0  0  0  0  0  0  0  0  0  0  0  0
    4.2868   -4.9500    0.0000 O   0  0  0  0  0  0  0  0  0  0  0  0
    3.5724   -6.1875    0.0000 O   0  0  0  0  0  0  0  0  0  0  0  0
    2.8579   -4.1250    0.0000 C   0  0  0  0  0  0  0  0  0  0  0  0
  1  2  1  0  0  0  0
  2  3  4  0  0  0  0
  3  4  4  0  0  0  0
  4  5  4  0  0  0  0
  5  6  1  0  0  0  0
  6  7  1  0  0  0  0
  7  8  4  0  0  0  0
  8  9  4  0  0  0  0
  9 10  4  0  0  0  0
 10 11  1  0  0  0  0
 11 12  4  0  0  0  0
 12 13  4  0  0  0  0
 13 14  4  0  0  0  0
 14 15  4  0  0  0  0
 15 16  1  0  0  0  0
 16 17  2  0  0  0  0
 16 18  1  0  0  0  0
 18 19  1  0  0  0  0
 18 20  1  0  0  0  0
 15 21  4  0  0  0  0
 11 21  4  0  0  0  0
 10 22  4  0  0  0  0
 22 23  1  0  0  0  0
 22 24  4  0  0  0  0
  7 24  4  0  0  0  0
  5 25  4  0  0  0  0
 25 26  1  0  0  0  0
 26 27  2  0  0  0  0
 26 28  1  0  0  0  0
 25 29  4  0  0  0  0
  2 29  4  0  0  0  0
M  END
> <IC50(uM)>
0.033

> <Outcome>
1.0

> <BindingDB ID>
220004

> <BindingDB MonomerID>
102474

> <BindingDB Ligand Name>
US8536165, 68

> <Curation/DataSource>
US Patent

> <Article DOI>
?

> <PMID>
?

> <Patent Number>
US8536165

> <Authors>
Castro Palomino Laria, JC; Terricabras Belart, E; Erra Sola, M; Navarro Romero, E; Fonquerna Pou, S; Cardus Figueras, A; Lozoya Toribio, ME

> <Link to Ligand in BindingDB>
http://www.bindingdb.org/bind/chemsearch/marvin/MolStructure.jsp?monomerid=102474

> <Link to Ligand-Target Pair in BindingDB>
http://www.bindingdb.org/jsp/dbsearch/PrimarySearch_ki.jsp?energyterm=kJ/mole&tag=r21&monomerid=102474&enzyme=Dihydroorotate+dehydrogenase&column=ki&startPg=0&Increment=50&submit=Search

> <PubChem CID>
25187852

> <PubChem SID>
172097765

$$$$

  Mrv2115 07222212352D          

 35 38  0  0  0  0            999 V2000
   -1.8212    2.1599    0.0000 C   0  0  0  0  0  0  0  0  0  0  0  0
   -1.4087    1.4455    0.0000 C   0  0  0  0  0  0  0  0  0  0  0  0
   -1.8212    0.7310    0.0000 O   0  0  0  0  0  0  0  0  0  0  0  0
   -1.4087    0.0165    0.0000 C   0  0  0  0  0  0  0  0  0  0  0  0
   -0.5837    0.0165    0.0000 C   0  0  0  0  0  0  0  0  0  0  0  0
   -0.1712   -0.6979    0.0000 C   0  0  0  0  0  0  0  0  0  0  0  0
    0.6538   -0.6979    0.0000 N   0  0  0  0  0  0  0  0  0  0  0  0
    1.1387   -0.0305    0.0000 N   0  0  0  0  0  0  0  0  0  0  0  0
    1.9233   -0.2854    0.0000 C   0  0  0  0  0  0  0  0  0  0  0  0
    2.6378    0.1271    0.0000 C   0  0  0  0  0  0  0  0  0  0  0  0
    3.3523   -0.2854    0.0000 C   0  0  0  0  0  0  0  0  0  0  0  0
    3.3523   -1.1104    0.0000 C   0  0  0  0  0  0  0  0  0  0  0  0
    2.6378   -1.5229    0.0000 N   0  0  0  0  0  0  0  0  0  0  0  0
    1.9233   -1.1104    0.0000 N   0  0  0  0  0  0  0  0  0  0  0  0
    1.1387   -1.3654    0.0000 C   0  0  0  0  0  0  0  0  0  0  0  0
    0.8838   -2.1500    0.0000 O   0  0  0  0  0  0  0  0  0  0  0  0
   -0.5837   -1.4124    0.0000 C   0  0  0  0  0  0  0  0  0  0  0  0
   -0.1712   -2.1269    0.0000 F   0  0  0  0  0  0  0  0  0  0  0  0
   -1.4087   -1.4124    0.0000 C   0  0  0  0  0  0  0  0  0  0  0  0
   -1.8212   -0.6979    0.0000 C   0  0  0  0  0  0  0  0  0  0  0  0
   -2.6462   -0.6979    0.0000 C   0  0  0  0  0  0  0  0  0  0  0  0
   -3.0587    0.0165    0.0000 O   0  0  0  0  0  0  0  0  0  0  0  0
   -3.0587   -1.4124    0.0000 N   0  0  0  0  0  0  0  0  0  0  0  0
   -3.8837   -1.4124    0.0000 C   0  0  0  0  0  0  0  0  0  0  0  0
   -4.2962   -2.1269    0.0000 C   0  0  0  0  0  0  0  0  0  0  0  0
   -3.8837   -2.8414    0.0000 F   0  0  0  0  0  0  0  0  0  0  0  0
   -5.1212   -2.1269    0.0000 C   0  0  0  0  0  0  0  0  0  0  0  0
   -5.5337   -1.4124    0.0000 C   0  0  0  0  0  0  0  0  0  0  0  0
   -5.1212   -0.6979    0.0000 C   0  0  0  0  0  0  0  0  0  0  0  0
   -4.2962   -0.6979    0.0000 C   0  0  0  0  0  0  0  0  0  0  0  0
   -3.8837    0.0165    0.0000 F   0  0  0  0  0  0  0  0  0  0  0  0
   -0.5837    1.4455    0.0000 C   0  0  0  0  0  0  0  0  0  0  0  0
   -0.5837    0.6205    0.0000 F   0  0  0  0  0  0  0  0  0  0  0  0
   -0.5837    2.2705    0.0000 F   0  0  0  0  0  0  0  0  0  0  0  0
    0.2413    1.4455    0.0000 F   0  0  0  0  0  0  0  0  0  0  0  0
  1  2  1  0  0  0  0
  2  3  1  0  0  0  0
  3  4  1  0  0  0  0
  4  5  4  0  0  0  0
  5  6  4  0  0  0  0
  6  7  1  0  0  0  0
  7  8  4  0  0  0  0
  8  9  4  0  0  0  0
  9 10  4  0  0  0  0
 10 11  4  0  0  0  0
 11 12  4  0  0  0  0
 12 13  4  0  0  0  0
 13 14  4  0  0  0  0
  9 14  4  0  0  0  0
 14 15  4  0  0  0  0
  7 15  4  0  0  0  0
 15 16  2  0  0  0  0
  6 17  4  0  0  0  0
 17 18  1  0  0  0  0
 17 19  4  0  0  0  0
 19 20  4  0  0  0  0
  4 20  4  0  0  0  0
 20 21  1  0  0  0  0
 21 22  2  0  0  0  0
 21 23  1  0  0  0  0
 23 24  1  0  0  0  0
 24 25  4  0  0  0  0
 25 26  1  0  0  0  0
 25 27  4  0  0  0  0
 27 28  4  0  0  0  0
 28 29  4  0  0  0  0
 29 30  4  0  0  0  0
 24 30  4  0  0  0  0
 30 31  1  0  0  0  0
  2 32  1  0  0  0  0
 32 33  1  0  0  0  0
 32 34  1  0  0  0  0
 32 35  1  0  0  0  0
M  END
> <IC50(uM)>
1.3

> <Outcome>
0.0

> <BindingDB ID>
1020656

> <BindingDB MonomerID>
490585

> <BindingDB Ligand Name>
N-(2,6-difluorophenyl)-5-fluoro-4-(3-oxo[1,2,4]triazolo[4,3-b]pyridazin-2(3H)-yl)-2-{[(2S)-1,1,1-trifluoropropan-2-yl]oxy}benzamide::US10968216, Example 253

> <Curation/DataSource>
US Patent

> <Article DOI>
?

> <PMID>
?

> <Patent Number>
US10968216

> <Authors>
Gradl, SN; Nguyen, D; Eis, K; Gunther, J; Stellfeld, T; Janzer, A; Christian, S; Mueller, T; Sheikh, SE; Zhou, HJ; Zhao, C; Sykes, DB; Ferrara, SJ; Liu, K; Herbert, SA; Merz, C; Niehues, M; Nising, CF; Schafer, M; Zimmermann, K; Knablein, J; Thede, K; Faupel, T

> <Link to Ligand in BindingDB>
http://www.bindingdb.org/bind/chemsearch/marvin/MolStructure.jsp?monomerid=490585

> <Link to Ligand-Target Pair in BindingDB>
http://www.bindingdb.org/jsp/dbsearch/PrimarySearch_ki.jsp?energyterm=kJ/mole&tag=r21&monomerid=490585&enzyme=Dihydroorotate+dehydrogenase&column=ki&startPg=0&Increment=50&submit=Search

> <PubChem CID>
134474059

> <PubChem SID>
447117311

$$$$

  Mrv2115 07222212352D          

 40 43  0  0  0  0            999 V2000
   -3.1034    2.1599    0.0000 C   0  0  0  0  0  0  0  0  0  0  0  0
   -2.6909    1.4455    0.0000 C   0  0  0  0  0  0  0  0  0  0  0  0
   -3.1034    0.7310    0.0000 O   0  0  0  0  0  0  0  0  0  0  0  0
   -2.6909    0.0165    0.0000 C   0  0  0  0  0  0  0  0  0  0  0  0
   -1.8659    0.0165    0.0000 C   0  0  0  0  0  0  0  0  0  0  0  0
   -1.4534   -0.6979    0.0000 C   0  0  0  0  0  0  0  0  0  0  0  0
   -0.6284   -0.6979    0.0000 N   0  0  0  0  0  0  0  0  0  0  0  0
   -0.1435   -1.3654    0.0000 N   0  0  0  0  0  0  0  0  0  0  0  0
    0.6411   -1.1104    0.0000 C   0  0  0  0  0  0  0  0  0  0  0  0
    0.6411   -0.2854    0.0000 N   0  0  0  0  0  0  0  0  0  0  0  0
   -0.1435   -0.0305    0.0000 C   0  0  0  0  0  0  0  0  0  0  0  0
   -0.3984    0.7541    0.0000 O   0  0  0  0  0  0  0  0  0  0  0  0
    1.3556    0.1271    0.0000 C   0  0  0  0  0  0  0  0  0  0  0  0
    2.0701   -0.2854    0.0000 C   0  0  0  0  0  0  0  0  0  0  0  0
    2.0701   -1.1104    0.0000 C   0  0  0  0  0  0  0  0  0  0  0  0
    1.3556   -1.5229    0.0000 C   0  0  0  0  0  0  0  0  0  0  0  0
   -1.8659   -1.4124    0.0000 C   0  0  0  0  0  0  0  0  0  0  0  0
   -1.4534   -2.1269    0.0000 F   0  0  0  0  0  0  0  0  0  0  0  0
   -2.6909   -1.4124    0.0000 C   0  0  0  0  0  0  0  0  0  0  0  0
   -3.1034   -0.6979    0.0000 C   0  0  0  0  0  0  0  0  0  0  0  0
   -3.9284   -0.6979    0.0000 C   0  0  0  0  0  0  0  0  0  0  0  0
   -4.3409    0.0165    0.0000 O   0  0  0  0  0  0  0  0  0  0  0  0
   -4.3409   -1.4124    0.0000 N   0  0  0  0  0  0  0  0  0  0  0  0
   -5.1659   -1.4124    0.0000 C   0  0  0  0  0  0  0  0  0  0  0  0
   -5.5784   -2.1269    0.0000 C   0  0  0  0  0  0  0  0  0  0  0  0
   -6.4034   -2.1269    0.0000 C   0  0  0  0  0  0  0  0  0  0  0  0
   -6.8159   -1.4124    0.0000 C   0  0  0  0  0  0  0  0  0  0  0  0
   -7.6409   -1.4124    0.0000 S   0  0  0  0  0  0  0  0  0  0  0  0
   -8.4659   -1.4124    0.0000 F   0  0  0  0  0  0  0  0  0  0  0  0
   -8.0534   -2.1269    0.0000 F   0  0  0  0  0  0  0  0  0  0  0  0
   -7.2284   -2.1269    0.0000 F   0  0  0  0  0  0  0  0  0  0  0  0
   -7.2284   -0.6979    0.0000 F   0  0  0  0  0  0  0  0  0  0  0  0
   -8.0534   -0.6979    0.0000 F   0  0  0  0  0  0  0  0  0  0  0  0
   -6.4034   -0.6979    0.0000 C   0  0  0  0  0  0  0  0  0  0  0  0
   -5.5784   -0.6979    0.0000 C   0  0  0  0  0  0  0  0  0  0  0  0
   -5.1659    0.0165    0.0000 Cl  0  0  0  0  0  0  0  0  0  0  0  0
   -1.8659    1.4455    0.0000 C   0  0  0  0  0  0  0  0  0  0  0  0
   -1.8659    0.6205    0.0000 F   0  0  0  0  0  0  0  0  0  0  0  0
   -1.8659    2.2705    0.0000 F   0  0  0  0  0  0  0  0  0  0  0  0
   -1.0409    1.4455    0.0000 F   0  0  0  0  0  0  0  0  0  0  0  0
  1  2  1  0  0  0  0
  2  3  1  0  0  0  0
  3  4  1  0  0  0  0
  4  5  4  0  0  0  0
  5  6  4  0  0  0  0
  6  7  1  0  0  0  0
  7  8  4  0  0  0  0
  8  9  4  0  0  0  0
  9 10  4  0  0  0  0
 10 11  4  0  0  0  0
  7 11  4  0  0  0  0
 11 12  2  0  0  0  0
 10 13  1  0  0  0  0
 13 14  1  0  0  0  0
 14 15  1  0  0  0  0
 15 16  1  0  0  0  0
  9 16  1  0  0  0  0
  6 17  4  0  0  0  0
 17 18  1  0  0  0  0
 17 19  4  0  0  0  0
 19 20  4  0  0  0  0
  4 20  4  0  0  0  0
 20 21  1  0  0  0  0
 21 22  2  0  0  0  0
 21 23  1  0  0  0  0
 23 24  1  0  0  0  0
 24 25  4  0  0  0  0
 25 26  4  0  0  0  0
 26 27  4  0  0  0  0
 27 28  1  0  0  0  0
 28 29  1  0  0  0  0
 28 30  1  0  0  0  0
 28 31  1  0  0  0  0
 28 32  1  0  0  0  0
 28 33  1  0  0  0  0
 27 34  4  0  0  0  0
 34 35  4  0  0  0  0
 24 35  4  0  0  0  0
 35 36  1  0  0  0  0
  2 37  1  0  0  0  0
 37 38  1  0  0  0  0
 37 39  1  0  0  0  0
 37 40  1  0  0  0  0
M  END
> <IC50(uM)>
1.5

> <Outcome>
0.0

> <BindingDB ID>
1020412

> <BindingDB MonomerID>
490363

> <BindingDB Ligand Name>
N-[2-chloro-4-(pentafluoro-lambda6-sulfanyl)phenyl]-5-fluoro-4-(3-oxo-5,6,7,8-tetrahydro[1,2,4]triazolo[4,3-a]pyridin-2(3H)-yl)-2-{[(2S)-1,1,1-trifluoropropan-2-yl]oxy}benzamide::US10968216, Example 31

> <Curation/DataSource>
US Patent

> <Article DOI>
?

> <PMID>
?

> <Patent Number>
US10968216

> <Authors>
Gradl, SN; Nguyen, D; Eis, K; Gunther, J; Stellfeld, T; Janzer, A; Christian, S; Mueller, T; Sheikh, SE; Zhou, HJ; Zhao, C; Sykes, DB; Ferrara, SJ; Liu, K; Herbert, SA; Merz, C; Niehues, M; Nising, CF; Schafer, M; Zimmermann, K; Knablein, J; Thede, K; Faupel, T

> <Link to Ligand in BindingDB>
http://www.bindingdb.org/bind/chemsearch/marvin/MolStructure.jsp?monomerid=490363

> <Link to Ligand-Target Pair in BindingDB>
http://www.bindingdb.org/jsp/dbsearch/PrimarySearch_ki.jsp?energyterm=kJ/mole&tag=r21&monomerid=490363&enzyme=Dihydroorotate+dehydrogenase&column=ki&startPg=0&Increment=50&submit=Search

> <PubChem CID>
134473925

> <PubChem SID>
447117090

$$$$

  Mrv2115 07222212352D          

 37 39  0  0  0  0            999 V2000
   -2.1434    8.4161    0.0000 C   0  0  0  0  0  0  0  0  0  0  0  0
   -1.4289    8.0036    0.0000 O   0  0  0  0  0  0  0  0  0  0  0  0
   -0.7145    8.4161    0.0000 C   0  0  0  0  0  0  0  0  0  0  0  0
   -0.7145    9.2411    0.0000 N   0  0  0  0  0  0  0  0  0  0  0  0
   -0.0000    9.6536    0.0000 C   0  0  0  0  0  0  0  0  0  0  0  0
    0.7145    9.2411    0.0000 C   0  0  0  0  0  0  0  0  0  0  0  0
    0.7145    8.4161    0.0000 C   0  0  0  0  0  0  0  0  0  0  0  0
    1.4289    8.0036    0.0000 C   0  0  0  0  0  0  0  0  0  0  0  0
   -0.0000    8.0036    0.0000 C   0  0  0  0  0  0  0  0  0  0  0  0
   -0.0000    7.1786    0.0000 N   0  0  0  0  0  0  0  0  0  0  0  0
    0.7145    6.7661    0.0000 C   0  0  0  0  0  0  0  0  0  0  0  0
    1.4289    7.1786    0.0000 O   0  0  0  0  0  0  0  0  0  0  0  0
    0.7145    5.9411    0.0000 C   0  0  0  0  0  0  0  0  0  0  0  0
    1.4289    5.5286    0.0000 C   0  0  0  0  0  0  0  0  0  0  0  0
    1.4289    4.7036    0.0000 C   0  0  0  0  0  0  0  0  0  0  0  0
    2.1434    4.2911    0.0000 F   0  0  0  0  0  0  0  0  0  0  0  0
    0.7145    4.2911    0.0000 C   0  0  0  0  0  0  0  0  0  0  0  0
    0.7145    3.4661    0.0000 N   0  0  0  0  0  0  0  0  0  0  0  0
    0.0470    2.9812    0.0000 N   0  0  0  0  0  0  0  0  0  0  0  0
    0.3020    2.1965    0.0000 C   0  0  0  0  0  0  0  0  0  0  0  0
   -0.1830    1.5291    0.0000 C   0  0  0  0  0  0  0  0  0  0  0  0
   -0.6679    0.8617    0.0000 C   0  0  0  0  0  0  0  0  0  0  0  0
   -0.8504    2.0140    0.0000 C   0  0  0  0  0  0  0  0  0  0  0  0
    0.4845    1.0442    0.0000 O   0  0  0  0  0  0  0  0  0  0  0  0
    1.1270    2.1965    0.0000 N   0  0  0  0  0  0  0  0  0  0  0  0
    1.6119    1.5291    0.0000 C   0  0  0  0  0  0  0  0  0  0  0  0
    1.3819    2.9812    0.0000 C   0  0  0  0  0  0  0  0  0  0  0  0
    2.1665    3.2361    0.0000 O   0  0  0  0  0  0  0  0  0  0  0  0
    0.0000    4.7036    0.0000 C   0  0  0  0  0  0  0  0  0  0  0  0
   -0.0000    5.5286    0.0000 C   0  0  0  0  0  0  0  0  0  0  0  0
   -0.7145    5.9411    0.0000 O   0  0  0  0  0  0  0  0  0  0  0  0
   -1.4289    5.5286    0.0000 C   0  0  0  0  0  0  0  0  0  0  0  0
   -1.4289    4.7036    0.0000 C   0  0  0  0  0  0  0  0  0  0  0  0
   -2.1434    5.9411    0.0000 C   0  0  0  0  0  0  0  0  0  0  0  0
   -1.7309    6.6555    0.0000 F   0  0  0  0  0  0  0  0  0  0  0  0
   -2.5559    5.2266    0.0000 F   0  0  0  0  0  0  0  0  0  0  0  0
   -2.8579    6.3536    0.0000 F   0  0  0  0  0  0  0  0  0  0  0  0
  1  2  1  0  0  0  0
  2  3  1  0  0  0  0
  3  4  4  0  0  0  0
  4  5  4  0  0  0  0
  5  6  4  0  0  0  0
  6  7  4  0  0  0  0
  7  8  1  0  0  0  0
  7  9  4  0  0  0  0
  3  9  4  0  0  0  0
  9 10  1  0  0  0  0
 10 11  1  0  0  0  0
 11 12  2  0  0  0  0
 11 13  1  0  0  0  0
 13 14  4  0  0  0  0
 14 15  4  0  0  0  0
 15 16  1  0  0  0  0
 15 17  4  0  0  0  0
 17 18  1  0  0  0  0
 18 19  4  0  0  0  0
 19 20  4  0  0  0  0
 20 21  1  0  0  0  0
 21 22  1  0  0  0  0
 21 23  1  0  0  0  0
 21 24  1  0  0  0  0
 20 25  4  0  0  0  0
 25 26  1  0  0  0  0
 25 27  4  0  0  0  0
 18 27  4  0  0  0  0
 27 28  2  0  0  0  0
 17 29  4  0  0  0  0
 29 30  4  0  0  0  0
 13 30  4  0  0  0  0
 30 31  1  0  0  0  0
 31 32  1  0  0  0  0
 32 33  1  0  0  0  0
 32 34  1  0  0  0  0
 34 35  1  0  0  0  0
 34 36  1  0  0  0  0
 34 37  1  0  0  0  0
M  END
> <IC50(uM)>
0.025

> <Outcome>
1.0

> <BindingDB ID>
1098737; 972583

> <BindingDB MonomerID>
470459

> <BindingDB Ligand Name>
5-fluoro-4-[3-(2-hydroxypropan-2-yl)-4-methyl-5-oxo-4,5-dihydro-1H-1,2,4-triazol-1-yl]-N-(2-methoxy-4-methylpyridin-3-yl)-2-{[(2S)-1,1,1-trifluoropropan-2-yl]oxy}benzamide::US10815215, Example 125::US11130745, Example 125; 5-fluoro-4-[3-(2-hydroxypropan-2-yl)-4-methyl-5-oxo-4,5-dihydro-1H-1,2,4-triazol-1-yl]-N-(2-methoxy-4-methylpyridin-3-yl)-2-{[(2S)-1,1,1-trifluoropropan-2-yl]oxy}benzamide::US10815215, Example 125

> <Curation/DataSource>
US Patent

> <Article DOI>
?

> <PMID>
?

> <Patent Number>
US11130745; US10815215

> <Authors>
Gradl, SN; Nguyen, D; Eis, K; Gunther, J; Stellfeld, T; Janzer, A; Christian, S; Muller, T; Sheikh, SE; Sykes, DB; Ferrara, SJ; Krober, M; Merz, C; Niehues, M; Schafer, M; Zimmermann, K; Nising, CF; Gradl, SN; Nguyen, D; Eis, K; Gunther, J; Stellfeld, T; Janzer, A; Christian, S; Muller, T; Sheikh, SE; Zhou, HJ; Zhao, C; Sykes, DB; Ferrara, SJ; Liu, K; Krober, M; Merz, C; Niehues, M; Schafer, M; Zimmermann, K; Nising, CF

> <Link to Ligand in BindingDB>
http://www.bindingdb.org/bind/chemsearch/marvin/MolStructure.jsp?monomerid=470459

> <Link to Ligand-Target Pair in BindingDB>
http://www.bindingdb.org/jsp/dbsearch/PrimarySearch_ki.jsp?energyterm=kJ/mole&tag=r21&monomerid=470459&enzyme=Dihydroorotate+dehydrogenase&column=ki&startPg=0&Increment=50&submit=Search

> <PubChem CID>
134469956

> <PubChem SID>
441609636

$$$$

  Mrv2115 07222212352D          

 25 27  0  0  0  0            999 V2000
    2.1434   -2.8875    0.0000 C   0  0  0  0  0  0  0  0  0  0  0  0
    2.1434   -3.7125    0.0000 C   0  0  0  0  0  0  0  0  0  0  0  0
    1.4289   -4.1250    0.0000 C   0  0  0  0  0  0  0  0  0  0  0  0
    1.4289   -4.9500    0.0000 C   0  0  0  0  0  0  0  0  0  0  0  0
    2.1434   -5.3625    0.0000 C   0  0  0  0  0  0  0  0  0  0  0  0
    2.1434   -6.1875    0.0000 N   0  0  0  0  0  0  0  0  0  0  0  0
    1.4289   -6.6000    0.0000 C   0  0  0  0  0  0  0  0  0  0  0  0
    1.4289   -7.4250    0.0000 C   0  0  0  0  0  0  0  0  0  0  0  0
    0.7145   -7.8375    0.0000 N   0  0  0  0  0  0  0  0  0  0  0  0
    0.0000   -7.4250    0.0000 C   0  0  0  0  0  0  0  0  0  0  0  0
   -0.7145   -7.8375    0.0000 C   0  0  0  0  0  0  0  0  0  0  0  0
   -0.7145   -8.6625    0.0000 C   0  0  0  0  0  0  0  0  0  0  0  0
   -1.4289   -9.0750    0.0000 C   0  0  0  0  0  0  0  0  0  0  0  0
   -2.1434   -8.6625    0.0000 C   0  0  0  0  0  0  0  0  0  0  0  0
   -2.1434   -7.8375    0.0000 C   0  0  0  0  0  0  0  0  0  0  0  0
   -1.4289   -7.4250    0.0000 C   0  0  0  0  0  0  0  0  0  0  0  0
   -1.4289   -6.6000    0.0000 Cl  0  0  0  0  0  0  0  0  0  0  0  0
    0.0000   -6.6000    0.0000 C   0  0  0  0  0  0  0  0  0  0  0  0
   -0.7145   -6.1875    0.0000 C   0  0  0  0  0  0  0  0  0  0  0  0
    0.7145   -6.1875    0.0000 C   0  0  0  0  0  0  0  0  0  0  0  0
    2.8579   -4.9500    0.0000 C   0  0  0  0  0  0  0  0  0  0  0  0
    3.5724   -5.3625    0.0000 C   0  0  0  0  0  0  0  0  0  0  0  0
    4.2868   -4.9500    0.0000 O   0  0  0  0  0  0  0  0  0  0  0  0
    3.5724   -6.1875    0.0000 O   0  0  0  0  0  0  0  0  0  0  0  0
    2.8579   -4.1250    0.0000 C   0  0  0  0  0  0  0  0  0  0  0  0
  1  2  1  0  0  0  0
  2  3  4  0  0  0  0
  3  4  4  0  0  0  0
  4  5  4  0  0  0  0
  5  6  1  0  0  0  0
  6  7  1  0  0  0  0
  7  8  4  0  0  0  0
  8  9  4  0  0  0  0
  9 10  4  0  0  0  0
 10 11  1  0  0  0  0
 11 12  4  0  0  0  0
 12 13  4  0  0  0  0
 13 14  4  0  0  0  0
 14 15  4  0  0  0  0
 15 16  4  0  0  0  0
 11 16  4  0  0  0  0
 16 17  1  0  0  0  0
 10 18  4  0  0  0  0
 18 19  1  0  0  0  0
 18 20  4  0  0  0  0
  7 20  4  0  0  0  0
  5 21  4  0  0  0  0
 21 22  1  0  0  0  0
 22 23  2  0  0  0  0
 22 24  1  0  0  0  0
 21 25  4  0  0  0  0
  2 25  4  0  0  0  0
M  END
> <IC50(uM)>
0.014

> <Outcome>
1.0

> <BindingDB ID>
220000

> <BindingDB MonomerID>
102470

> <BindingDB Ligand Name>
US8536165, 64

> <Curation/DataSource>
US Patent

> <Article DOI>
?

> <PMID>
?

> <Patent Number>
US8536165

> <Authors>
Castro Palomino Laria, JC; Terricabras Belart, E; Erra Sola, M; Navarro Romero, E; Fonquerna Pou, S; Cardus Figueras, A; Lozoya Toribio, ME

> <Link to Ligand in BindingDB>
http://www.bindingdb.org/bind/chemsearch/marvin/MolStructure.jsp?monomerid=102470

> <Link to Ligand-Target Pair in BindingDB>
http://www.bindingdb.org/jsp/dbsearch/PrimarySearch_ki.jsp?energyterm=kJ/mole&tag=r21&monomerid=102470&enzyme=Dihydroorotate+dehydrogenase&column=ki&startPg=0&Increment=50&submit=Search

> <PubChem CID>
46847894

> <PubChem SID>
172097761

$$$$

  Mrv2115 07222212352D          

 27 29  0  0  0  0            999 V2000
    4.0668    2.3479    0.0000 C   0  0  0  0  0  0  0  0  0  0  0  0
    3.3523    1.9354    0.0000 C   0  0  0  0  0  0  0  0  0  0  0  0
    3.3523    1.1104    0.0000 C   0  0  0  0  0  0  0  0  0  0  0  0
    2.6378    0.6979    0.0000 C   0  0  0  0  0  0  0  0  0  0  0  0
    2.6378   -0.1271    0.0000 N   0  0  0  0  0  0  0  0  0  0  0  0
    3.3523   -0.5396    0.0000 C   0  0  0  0  0  0  0  0  0  0  0  0
    4.0668   -0.1271    0.0000 C   0  0  0  0  0  0  0  0  0  0  0  0
    4.7812   -0.5396    0.0000 C   0  0  0  0  0  0  0  0  0  0  0  0
    4.7812   -1.3646    0.0000 C   0  0  0  0  0  0  0  0  0  0  0  0
    5.4957   -1.7771    0.0000 S   0  0  0  0  0  0  0  0  0  0  0  0
    6.2102   -2.1896    0.0000 F   0  0  0  0  0  0  0  0  0  0  0  0
    4.7812   -2.1896    0.0000 F   0  0  0  0  0  0  0  0  0  0  0  0
    5.4957   -2.6021    0.0000 F   0  0  0  0  0  0  0  0  0  0  0  0
    6.2102   -1.3646    0.0000 F   0  0  0  0  0  0  0  0  0  0  0  0
    5.4957   -0.9521    0.0000 F   0  0  0  0  0  0  0  0  0  0  0  0
    4.0668   -1.7771    0.0000 C   0  0  0  0  0  0  0  0  0  0  0  0
    3.3523   -1.3646    0.0000 C   0  0  0  0  0  0  0  0  0  0  0  0
    1.9233    1.1104    0.0000 N   0  0  0  0  0  0  0  0  0  0  0  0
    1.1387    0.8555    0.0000 N   0  0  0  0  0  0  0  0  0  0  0  0
    0.6538    1.5229    0.0000 C   0  0  0  0  0  0  0  0  0  0  0  0
   -0.1712    1.5229    0.0000 C   0  0  0  0  0  0  0  0  0  0  0  0
   -0.9962    1.5229    0.0000 C   0  0  0  0  0  0  0  0  0  0  0  0
   -0.1712    2.3479    0.0000 C   0  0  0  0  0  0  0  0  0  0  0  0
   -0.1712    0.6979    0.0000 C   0  0  0  0  0  0  0  0  0  0  0  0
    1.1387    2.1904    0.0000 N   0  0  0  0  0  0  0  0  0  0  0  0
    1.9233    1.9354    0.0000 C   0  0  0  0  0  0  0  0  0  0  0  0
    2.6378    2.3479    0.0000 N   0  0  0  0  0  0  0  0  0  0  0  0
  1  2  1  0  0  0  0
  2  3  4  0  0  0  0
  3  4  4  0  0  0  0
  4  5  1  0  0  0  0
  5  6  1  0  0  0  0
  6  7  4  0  0  0  0
  7  8  4  0  0  0  0
  8  9  4  0  0  0  0
  9 10  1  0  0  0  0
 10 11  1  0  0  0  0
 10 12  1  0  0  0  0
 10 13  1  0  0  0  0
 10 14  1  0  0  0  0
 10 15  1  0  0  0  0
  9 16  4  0  0  0  0
 16 17  4  0  0  0  0
  6 17  4  0  0  0  0
  4 18  4  0  0  0  0
 18 19  4  0  0  0  0
 19 20  4  0  0  0  0
 20 21  1  0  0  0  0
 21 22  1  0  0  0  0
 21 23  1  0  0  0  0
 21 24  1  0  0  0  0
 20 25  4  0  0  0  0
 25 26  4  0  0  0  0
 18 26  4  0  0  0  0
 26 27  4  0  0  0  0
  2 27  4  0  0  0  0
M  END
> <IC50(uM)>
100.0

> <Outcome>
0.0

> <BindingDB ID>
50720169

> <BindingDB MonomerID>
50365239

> <BindingDB Ligand Name>
CHEMBL1956273

> <Curation/DataSource>
ChEMBL

> <Article DOI>
10.1021/jm200592f

> <PMID>
21696174

> <Patent Number>
?

> <Authors>
Coteron, JM; Marco, M; Esquivias, J; Deng, X; White, KL; White, J; Koltun, M; El Mazouni, F; Kokkonda, S; Katneni, K; Bhamidipati, R; Shackleford, DM; Angulo-Barturen, I; Ferrer, SB; Jimenez-Diaz, MB; Gamo, FJ; Goldsmith, EJ; Charman, WN; Bathurst, I; Floyd, D; Matthews, D; Burrows, JN; Rathod, PK; Charman, SA; Phillips, MA

> <Link to Ligand in BindingDB>
http://www.bindingdb.org/bind/chemsearch/marvin/MolStructure.jsp?monomerid=50365239

> <Link to Ligand-Target Pair in BindingDB>
http://www.bindingdb.org/jsp/dbsearch/PrimarySearch_ki.jsp?energyterm=kJ/mole&tag=r21&monomerid=50365239&enzyme=Dihydroorotate+dehydrogenase&column=ki&startPg=0&Increment=50&submit=Search

> <PubChem CID>
53392616

> <PubChem SID>
136969301

$$$$

  Mrv2115 07222212352D          

 35 38  0  0  0  0            999 V2000
   -7.6409   -1.4124    0.0000 C   0  0  0  0  0  0  0  0  0  0  0  0
   -6.8159   -1.4124    0.0000 C   0  0  0  0  0  0  0  0  0  0  0  0
   -6.4034   -0.6979    0.0000 C   0  0  0  0  0  0  0  0  0  0  0  0
   -5.5784   -0.6979    0.0000 N   0  0  0  0  0  0  0  0  0  0  0  0
   -5.1659   -1.4124    0.0000 C   0  0  0  0  0  0  0  0  0  0  0  0
   -4.3409   -1.4124    0.0000 N   0  0  0  0  0  0  0  0  0  0  0  0
   -3.9284   -0.6979    0.0000 C   0  0  0  0  0  0  0  0  0  0  0  0
   -4.3409    0.0165    0.0000 O   0  0  0  0  0  0  0  0  0  0  0  0
   -3.1034   -0.6979    0.0000 C   0  0  0  0  0  0  0  0  0  0  0  0
   -2.6909    0.0165    0.0000 C   0  0  0  0  0  0  0  0  0  0  0  0
   -1.8659    0.0165    0.0000 C   0  0  0  0  0  0  0  0  0  0  0  0
   -1.4534    0.7310    0.0000 F   0  0  0  0  0  0  0  0  0  0  0  0
   -1.4534   -0.6979    0.0000 C   0  0  0  0  0  0  0  0  0  0  0  0
   -0.6284   -0.6979    0.0000 N   0  0  0  0  0  0  0  0  0  0  0  0
   -0.1435   -1.3654    0.0000 N   0  0  0  0  0  0  0  0  0  0  0  0
    0.6411   -1.1104    0.0000 C   0  0  0  0  0  0  0  0  0  0  0  0
    0.6411   -0.2854    0.0000 N   0  0  0  0  0  0  0  0  0  0  0  0
   -0.1435   -0.0305    0.0000 C   0  0  0  0  0  0  0  0  0  0  0  0
   -0.3984    0.7541    0.0000 O   0  0  0  0  0  0  0  0  0  0  0  0
    1.3556    0.1271    0.0000 C   0  0  0  0  0  0  0  0  0  0  0  0
    2.0701   -0.2854    0.0000 C   0  0  0  0  0  0  0  0  0  0  0  0
    2.0701   -1.1104    0.0000 C   0  0  0  0  0  0  0  0  0  0  0  0
    1.3556   -1.5229    0.0000 C   0  0  0  0  0  0  0  0  0  0  0  0
   -1.8659   -1.4124    0.0000 C   0  0  0  0  0  0  0  0  0  0  0  0
   -2.6909   -1.4124    0.0000 C   0  0  0  0  0  0  0  0  0  0  0  0
   -3.1034   -2.1269    0.0000 O   0  0  0  0  0  0  0  0  0  0  0  0
   -2.6909   -2.8414    0.0000 C   0  0  0  0  0  0  0  0  0  0  0  0
   -1.8659   -2.8414    0.0000 C   0  0  0  0  0  0  0  0  0  0  0  0
   -3.1034   -3.5558    0.0000 C   0  0  0  0  0  0  0  0  0  0  0  0
   -2.6909   -4.2703    0.0000 N   0  0  0  0  0  0  0  0  0  0  0  0
   -1.8659   -4.2703    0.0000 C   0  0  0  0  0  0  0  0  0  0  0  0
   -3.1034   -4.9848    0.0000 C   0  0  0  0  0  0  0  0  0  0  0  0
   -5.5784   -2.1269    0.0000 C   0  0  0  0  0  0  0  0  0  0  0  0
   -5.1659   -2.8414    0.0000 C   0  0  0  0  0  0  0  0  0  0  0  0
   -6.4034   -2.1269    0.0000 N   0  0  0  0  0  0  0  0  0  0  0  0
  1  2  1  0  0  0  0
  2  3  4  0  0  0  0
  3  4  4  0  0  0  0
  4  5  4  0  0  0  0
  5  6  1  0  0  0  0
  6  7  1  0  0  0  0
  7  8  2  0  0  0  0
  7  9  1  0  0  0  0
  9 10  4  0  0  0  0
 10 11  4  0  0  0  0
 11 12  1  0  0  0  0
 11 13  4  0  0  0  0
 13 14  1  0  0  0  0
 14 15  4  0  0  0  0
 15 16  4  0  0  0  0
 16 17  4  0  0  0  0
 17 18  4  0  0  0  0
 14 18  4  0  0  0  0
 18 19  2  0  0  0  0
 17 20  1  0  0  0  0
 20 21  1  0  0  0  0
 21 22  1  0  0  0  0
 22 23  1  0  0  0  0
 16 23  1  0  0  0  0
 13 24  4  0  0  0  0
 24 25  4  0  0  0  0
  9 25  4  0  0  0  0
 25 26  1  0  0  0  0
 26 27  1  0  0  0  0
 27 28  1  0  0  0  0
 27 29  1  0  0  0  0
 29 30  1  0  0  0  0
 30 31  1  0  0  0  0
 30 32  1  0  0  0  0
  5 33  4  0  0  0  0
 33 34  1  0  0  0  0
 33 35  4  0  0  0  0
  2 35  4  0  0  0  0
M  END
> <IC50(uM)>
30.0

> <Outcome>
0.0

> <BindingDB ID>
1020678

> <BindingDB MonomerID>
490604

> <BindingDB Ligand Name>
2-{[(2S)-1-(dimethylamino)propan-2-yl]oxy}-N-(3,5-dimethylpyrazin-2-yl)-5-fluoro-4-(3-oxo-5,6,7,8-tetrahydro[1,2,4]triazolo[4,3-a]pyridin-2(3H)-yl)benzamide::US10968216, Example 272

> <Curation/DataSource>
US Patent

> <Article DOI>
?

> <PMID>
?

> <Patent Number>
US10968216

> <Authors>
Gradl, SN; Nguyen, D; Eis, K; Gunther, J; Stellfeld, T; Janzer, A; Christian, S; Mueller, T; Sheikh, SE; Zhou, HJ; Zhao, C; Sykes, DB; Ferrara, SJ; Liu, K; Herbert, SA; Merz, C; Niehues, M; Nising, CF; Schafer, M; Zimmermann, K; Knablein, J; Thede, K; Faupel, T

> <Link to Ligand in BindingDB>
http://www.bindingdb.org/bind/chemsearch/marvin/MolStructure.jsp?monomerid=490604

> <Link to Ligand-Target Pair in BindingDB>
http://www.bindingdb.org/jsp/dbsearch/PrimarySearch_ki.jsp?energyterm=kJ/mole&tag=r21&monomerid=490604&enzyme=Dihydroorotate+dehydrogenase&column=ki&startPg=0&Increment=50&submit=Search

> <PubChem CID>
134473952

> <PubChem SID>
447117330

$$$$

  Mrv2115 07222212352D          

 33 36  0  0  0  0            999 V2000
   -0.6284    2.1599    0.0000 C   0  0  0  0  0  0  0  0  0  0  0  0
   -1.4534    2.1599    0.0000 C   0  0  0  0  0  0  0  0  0  0  0  0
   -1.8659    1.4455    0.0000 C   0  0  0  0  0  0  0  0  0  0  0  0
   -2.6909    1.4455    0.0000 C   0  0  0  0  0  0  0  0  0  0  0  0
   -3.1034    2.1599    0.0000 C   0  0  0  0  0  0  0  0  0  0  0  0
   -3.1034    0.7310    0.0000 O   0  0  0  0  0  0  0  0  0  0  0  0
   -2.6909    0.0165    0.0000 C   0  0  0  0  0  0  0  0  0  0  0  0
   -1.8659    0.0165    0.0000 C   0  0  0  0  0  0  0  0  0  0  0  0
   -1.4534   -0.6979    0.0000 C   0  0  0  0  0  0  0  0  0  0  0  0
   -0.6284   -0.6979    0.0000 N   0  0  0  0  0  0  0  0  0  0  0  0
   -0.1435   -1.3654    0.0000 N   0  0  0  0  0  0  0  0  0  0  0  0
    0.6411   -1.1104    0.0000 C   0  0  0  0  0  0  0  0  0  0  0  0
    0.6411   -0.2854    0.0000 N   0  0  0  0  0  0  0  0  0  0  0  0
   -0.1435   -0.0305    0.0000 C   0  0  0  0  0  0  0  0  0  0  0  0
   -0.3984    0.7541    0.0000 O   0  0  0  0  0  0  0  0  0  0  0  0
    1.3556    0.1271    0.0000 C   0  0  0  0  0  0  0  0  0  0  0  0
    2.0701   -0.2854    0.0000 C   0  0  0  0  0  0  0  0  0  0  0  0
    2.0701   -1.1104    0.0000 C   0  0  0  0  0  0  0  0  0  0  0  0
    1.3556   -1.5229    0.0000 C   0  0  0  0  0  0  0  0  0  0  0  0
   -1.8659   -1.4124    0.0000 C   0  0  0  0  0  0  0  0  0  0  0  0
   -1.4534   -2.1269    0.0000 F   0  0  0  0  0  0  0  0  0  0  0  0
   -2.6909   -1.4124    0.0000 C   0  0  0  0  0  0  0  0  0  0  0  0
   -3.1034   -0.6979    0.0000 C   0  0  0  0  0  0  0  0  0  0  0  0
   -3.9284   -0.6979    0.0000 C   0  0  0  0  0  0  0  0  0  0  0  0
   -4.3409    0.0165    0.0000 O   0  0  0  0  0  0  0  0  0  0  0  0
   -4.3409   -1.4124    0.0000 N   0  0  0  0  0  0  0  0  0  0  0  0
   -3.9284   -2.1269    0.0000 C   0  0  0  0  0  0  0  0  0  0  0  0
   -3.1034   -2.1269    0.0000 C   0  0  0  0  0  0  0  0  0  0  0  0
   -2.6909   -2.8414    0.0000 N   0  0  0  0  0  0  0  0  0  0  0  0
   -3.1034   -3.5558    0.0000 C   0  0  0  0  0  0  0  0  0  0  0  0
   -3.9284   -3.5558    0.0000 C   0  0  0  0  0  0  0  0  0  0  0  0
   -4.3409   -2.8414    0.0000 C   0  0  0  0  0  0  0  0  0  0  0  0
   -5.1659   -2.8414    0.0000 C   0  0  0  0  0  0  0  0  0  0  0  0
  1  2  1  0  0  0  0
  2  3  1  0  0  0  0
  3  4  1  0  0  0  0
  4  5  1  0  0  0  0
  4  6  1  0  0  0  0
  6  7  1  0  0  0  0
  7  8  4  0  0  0  0
  8  9  4  0  0  0  0
  9 10  1  0  0  0  0
 10 11  4  0  0  0  0
 11 12  4  0  0  0  0
 12 13  4  0  0  0  0
 13 14  4  0  0  0  0
 10 14  4  0  0  0  0
 14 15  2  0  0  0  0
 13 16  1  0  0  0  0
 16 17  1  0  0  0  0
 17 18  1  0  0  0  0
 18 19  1  0  0  0  0
 12 19  1  0  0  0  0
  9 20  4  0  0  0  0
 20 21  1  0  0  0  0
 20 22  4  0  0  0  0
 22 23  4  0  0  0  0
  7 23  4  0  0  0  0
 23 24  1  0  0  0  0
 24 25  2  0  0  0  0
 24 26  1  0  0  0  0
 26 27  1  0  0  0  0
 27 28  4  0  0  0  0
 28 29  4  0  0  0  0
 29 30  4  0  0  0  0
 30 31  4  0  0  0  0
 31 32  4  0  0  0  0
 27 32  4  0  0  0  0
 32 33  1  0  0  0  0
M  END
> <IC50(uM)>
0.017

> <Outcome>
1.0

> <BindingDB ID>
1020386

> <BindingDB MonomerID>
490342

> <BindingDB Ligand Name>
5-fluoro-N-(4-methylpyridin-3-yl)-4-(3-oxo-5,6,7,8-tetrahydro[1,2,4]triazolo[4,3-a]pyridin-2(3H)-yl)-2-[(2S)-pentan-2-yloxy]benzamide::US10968216, Example 10

> <Curation/DataSource>
US Patent

> <Article DOI>
?

> <PMID>
?

> <Patent Number>
US10968216

> <Authors>
Gradl, SN; Nguyen, D; Eis, K; Gunther, J; Stellfeld, T; Janzer, A; Christian, S; Mueller, T; Sheikh, SE; Zhou, HJ; Zhao, C; Sykes, DB; Ferrara, SJ; Liu, K; Herbert, SA; Merz, C; Niehues, M; Nising, CF; Schafer, M; Zimmermann, K; Knablein, J; Thede, K; Faupel, T

> <Link to Ligand in BindingDB>
http://www.bindingdb.org/bind/chemsearch/marvin/MolStructure.jsp?monomerid=490342

> <Link to Ligand-Target Pair in BindingDB>
http://www.bindingdb.org/jsp/dbsearch/PrimarySearch_ki.jsp?energyterm=kJ/mole&tag=r21&monomerid=490342&enzyme=Dihydroorotate+dehydrogenase&column=ki&startPg=0&Increment=50&submit=Search

> <PubChem CID>
134474114

> <PubChem SID>
447117069

$$$$

  Mrv2115 07222212352D          

 27 30  0  0  0  0            999 V2000
    0.6538   -2.1269    0.0000 C   0  0  0  0  0  0  0  0  0  0  0  0
   -0.1712   -2.1269    0.0000 O   0  0  0  0  0  0  0  0  0  0  0  0
   -0.5837   -1.4124    0.0000 C   0  0  0  0  0  0  0  0  0  0  0  0
   -1.4087   -1.4124    0.0000 C   0  0  0  0  0  0  0  0  0  0  0  0
   -1.8212   -0.6979    0.0000 C   0  0  0  0  0  0  0  0  0  0  0  0
   -2.6462   -0.6979    0.0000 C   0  0  0  0  0  0  0  0  0  0  0  0
   -3.0587   -1.4124    0.0000 C   0  0  0  0  0  0  0  0  0  0  0  0
   -3.8837   -1.4124    0.0000 C   0  0  0  0  0  0  0  0  0  0  0  0
   -4.2962   -0.6979    0.0000 C   0  0  0  0  0  0  0  0  0  0  0  0
   -3.8837    0.0165    0.0000 C   0  0  0  0  0  0  0  0  0  0  0  0
   -3.0587    0.0165    0.0000 C   0  0  0  0  0  0  0  0  0  0  0  0
   -1.4087    0.0165    0.0000 C   0  0  0  0  0  0  0  0  0  0  0  0
   -0.5837    0.0165    0.0000 C   0  0  0  0  0  0  0  0  0  0  0  0
   -0.1712   -0.6979    0.0000 C   0  0  0  0  0  0  0  0  0  0  0  0
    0.6538   -0.6979    0.0000 C   0  0  0  0  0  0  0  0  0  0  0  0
    1.1387   -0.0305    0.0000 N   0  0  0  0  0  0  0  0  0  0  0  0
    1.9233   -0.2854    0.0000 C   0  0  0  0  0  0  0  0  0  0  0  0
    2.6378    0.1271    0.0000 C   0  0  0  0  0  0  0  0  0  0  0  0
    2.6378    0.9521    0.0000 C   0  0  0  0  0  0  0  0  0  0  0  0
    1.9233    1.3646    0.0000 O   0  0  0  0  0  0  0  0  0  0  0  0
    3.3523    1.3646    0.0000 O   0  0  0  0  0  0  0  0  0  0  0  0
    3.3523   -0.2854    0.0000 C   0  0  0  0  0  0  0  0  0  0  0  0
    3.3523   -1.1104    0.0000 C   0  0  0  0  0  0  0  0  0  0  0  0
    4.0668   -1.5229    0.0000 C   0  0  0  0  0  0  0  0  0  0  0  0
    2.6378   -1.5229    0.0000 C   0  0  0  0  0  0  0  0  0  0  0  0
    1.9233   -1.1104    0.0000 C   0  0  0  0  0  0  0  0  0  0  0  0
    1.1387   -1.3654    0.0000 N   0  0  0  0  0  0  0  0  0  0  0  0
  1  2  1  0  0  0  0
  2  3  1  0  0  0  0
  3  4  4  0  0  0  0
  4  5  4  0  0  0  0
  5  6  1  0  0  0  0
  6  7  4  0  0  0  0
  7  8  4  0  0  0  0
  8  9  4  0  0  0  0
  9 10  4  0  0  0  0
 10 11  4  0  0  0  0
  6 11  4  0  0  0  0
  5 12  4  0  0  0  0
 12 13  4  0  0  0  0
 13 14  4  0  0  0  0
  3 14  4  0  0  0  0
 14 15  1  0  0  0  0
 15 16  4  0  0  0  0
 16 17  4  0  0  0  0
 17 18  4  0  0  0  0
 18 19  1  0  0  0  0
 19 20  2  0  0  0  0
 19 21  1  0  0  0  0
 18 22  4  0  0  0  0
 22 23  4  0  0  0  0
 23 24  1  0  0  0  0
 23 25  4  0  0  0  0
 25 26  4  0  0  0  0
 17 26  4  0  0  0  0
 26 27  4  0  0  0  0
 15 27  4  0  0  0  0
M  STY  1   1 DAT
M  SAL   1  1  27
M  SDT   1 MRV_IMPLICIT_H                                        
M  SDD   1     0.5304   -0.4125    DR    ALL  0       0  
M  SED   1 IMPL_H1
M  END
> <IC50(uM)>
1.18

> <Outcome>
0.0

> <BindingDB ID>
297768

> <BindingDB MonomerID>
155424

> <BindingDB Ligand Name>
US9006454, I46

> <Curation/DataSource>
US Patent

> <Article DOI>
?

> <PMID>
?

> <Patent Number>
US9006454

> <Authors>
Thunuguntla, SS; Subramanya, H; Kunnam, SR; Sanivaru Vijay, SR; Bingi, C; Kusanur, R; Schwarz, M; Arlt, M

> <Link to Ligand in BindingDB>
http://www.bindingdb.org/bind/chemsearch/marvin/MolStructure.jsp?monomerid=155424

> <Link to Ligand-Target Pair in BindingDB>
http://www.bindingdb.org/jsp/dbsearch/PrimarySearch_ki.jsp?energyterm=kJ/mole&tag=r21&monomerid=155424&enzyme=Dihydroorotate+dehydrogenase&column=ki&startPg=0&Increment=50&submit=Search

> <PubChem CID>
46946582

> <PubChem SID>
253658361

$$$$

  Mrv2115 07222212352D          

 32 34  0  0  0  0            999 V2000
   -4.0709   -6.2261    0.0000 C   0  0  0  0  0  0  0  0  0  0  0  0
   -4.0709   -5.4011    0.0000 C   0  0  0  0  0  0  0  0  0  0  0  0
   -3.3565   -4.9886    0.0000 O   0  0  0  0  0  0  0  0  0  0  0  0
   -3.3565   -4.1636    0.0000 C   0  0  0  0  0  0  0  0  0  0  0  0
   -4.0709   -3.7511    0.0000 C   0  0  0  0  0  0  0  0  0  0  0  0
   -4.0709   -2.9261    0.0000 C   0  0  0  0  0  0  0  0  0  0  0  0
   -4.7854   -2.5136    0.0000 N   0  0  0  0  0  0  0  0  0  0  0  0
   -4.8717   -1.6931    0.0000 N   0  0  0  0  0  0  0  0  0  0  0  0
   -5.6786   -1.5216    0.0000 C   0  0  0  0  0  0  0  0  0  0  0  0
   -6.0911   -2.2361    0.0000 N   0  0  0  0  0  0  0  0  0  0  0  0
   -5.5391   -2.8491    0.0000 C   0  0  0  0  0  0  0  0  0  0  0  0
   -5.7106   -3.6561    0.0000 O   0  0  0  0  0  0  0  0  0  0  0  0
   -6.9161   -2.2361    0.0000 C   0  0  0  0  0  0  0  0  0  0  0  0
   -7.3286   -1.5216    0.0000 C   0  0  0  0  0  0  0  0  0  0  0  0
   -6.9161   -0.8071    0.0000 C   0  0  0  0  0  0  0  0  0  0  0  0
   -6.0911   -0.8071    0.0000 C   0  0  0  0  0  0  0  0  0  0  0  0
   -3.3565   -2.5136    0.0000 C   0  0  0  0  0  0  0  0  0  0  0  0
   -3.3565   -1.6886    0.0000 F   0  0  0  0  0  0  0  0  0  0  0  0
   -2.6420   -2.9261    0.0000 C   0  0  0  0  0  0  0  0  0  0  0  0
   -2.6420   -3.7511    0.0000 C   0  0  0  0  0  0  0  0  0  0  0  0
   -1.9275   -4.1636    0.0000 C   0  0  0  0  0  0  0  0  0  0  0  0
   -1.9275   -4.9886    0.0000 O   0  0  0  0  0  0  0  0  0  0  0  0
   -1.2131   -3.7511    0.0000 N   0  0  0  0  0  0  0  0  0  0  0  0
   -0.4986   -4.1636    0.0000 C   0  0  0  0  0  0  0  0  0  0  0  0
    0.2159   -3.7511    0.0000 C   0  0  0  0  0  0  0  0  0  0  0  0
    0.9303   -4.1636    0.0000 N   0  0  0  0  0  0  0  0  0  0  0  0
    1.6448   -3.7511    0.0000 C   0  0  0  0  0  0  0  0  0  0  0  0
    0.9303   -4.9886    0.0000 C   0  0  0  0  0  0  0  0  0  0  0  0
   -4.7854   -4.9886    0.0000 C   0  0  0  0  0  0  0  0  0  0  0  0
   -4.3729   -4.2741    0.0000 F   0  0  0  0  0  0  0  0  0  0  0  0
   -5.1979   -5.7031    0.0000 F   0  0  0  0  0  0  0  0  0  0  0  0
   -5.4999   -4.5761    0.0000 F   0  0  0  0  0  0  0  0  0  0  0  0
  1  2  1  0  0  0  0
  2  3  1  0  0  0  0
  3  4  1  0  0  0  0
  4  5  4  0  0  0  0
  5  6  4  0  0  0  0
  6  7  1  0  0  0  0
  7  8  4  0  0  0  0
  8  9  4  0  0  0  0
  9 10  4  0  0  0  0
 10 11  4  0  0  0  0
  7 11  4  0  0  0  0
 11 12  2  0  0  0  0
 10 13  1  0  0  0  0
 13 14  1  0  0  0  0
 14 15  1  0  0  0  0
 15 16  1  0  0  0  0
  9 16  1  0  0  0  0
  6 17  4  0  0  0  0
 17 18  1  0  0  0  0
 17 19  4  0  0  0  0
 19 20  4  0  0  0  0
  4 20  4  0  0  0  0
 20 21  1  0  0  0  0
 21 22  2  0  0  0  0
 21 23  1  0  0  0  0
 23 24  1  0  0  0  0
 24 25  1  0  0  0  0
 25 26  1  0  0  0  0
 26 27  1  0  0  0  0
 26 28  1  0  0  0  0
  2 29  1  0  0  0  0
 29 30  1  0  0  0  0
 29 31  1  0  0  0  0
 29 32  1  0  0  0  0
M  END
> <IC50(uM)>
4.5

> <Outcome>
0.0

> <BindingDB ID>
1020425

> <BindingDB MonomerID>
490376

> <BindingDB Ligand Name>
N-[2-(dimethylamino)ethyl]-5-fluoro-4-(3-oxo-5,6,7,8-tetrahydro[1,2,4]triazolo[4,3-a]pyridin-2(3H)-yl)-2-{[(2S)-1,1,1-trifluoropropan-2-yl]oxy}benzamide::US10968216, Example 44

> <Curation/DataSource>
US Patent

> <Article DOI>
?

> <PMID>
?

> <Patent Number>
US10968216

> <Authors>
Gradl, SN; Nguyen, D; Eis, K; Gunther, J; Stellfeld, T; Janzer, A; Christian, S; Mueller, T; Sheikh, SE; Zhou, HJ; Zhao, C; Sykes, DB; Ferrara, SJ; Liu, K; Herbert, SA; Merz, C; Niehues, M; Nising, CF; Schafer, M; Zimmermann, K; Knablein, J; Thede, K; Faupel, T

> <Link to Ligand in BindingDB>
http://www.bindingdb.org/bind/chemsearch/marvin/MolStructure.jsp?monomerid=490376

> <Link to Ligand-Target Pair in BindingDB>
http://www.bindingdb.org/jsp/dbsearch/PrimarySearch_ki.jsp?energyterm=kJ/mole&tag=r21&monomerid=490376&enzyme=Dihydroorotate+dehydrogenase&column=ki&startPg=0&Increment=50&submit=Search

> <PubChem CID>
142335895

> <PubChem SID>
447117103

$$$$

  Mrv2115 07222212352D          

 26 29  0  0  0  0            999 V2000
   -1.7923   -5.8535    0.0000 C   0  0  0  0  0  0  0  0  0  0  0  0
   -1.1792   -5.3015    0.0000 C   0  0  0  0  0  0  0  0  0  0  0  0
   -1.3507   -4.4945    0.0000 O   0  0  0  0  0  0  0  0  0  0  0  0
   -0.7376   -3.9425    0.0000 C   0  0  0  0  0  0  0  0  0  0  0  0
   -0.9091   -3.1355    0.0000 O   0  0  0  0  0  0  0  0  0  0  0  0
    0.0470   -4.1974    0.0000 C   0  0  0  0  0  0  0  0  0  0  0  0
    0.3020   -4.9820    0.0000 C   0  0  0  0  0  0  0  0  0  0  0  0
   -0.1830   -5.6495    0.0000 O   0  0  0  0  0  0  0  0  0  0  0  0
    1.1270   -4.9820    0.0000 C   0  0  0  0  0  0  0  0  0  0  0  0
    1.3819   -4.1974    0.0000 S   0  0  0  0  0  0  0  0  0  0  0  0
    0.7145   -3.7125    0.0000 C   0  0  0  0  0  0  0  0  0  0  0  0
    0.7145   -2.8875    0.0000 N   0  0  0  0  0  0  0  0  0  0  0  0
    1.4289   -2.4750    0.0000 C   0  0  0  0  0  0  0  0  0  0  0  0
    1.4289   -1.6500    0.0000 C   0  0  0  0  0  0  0  0  0  0  0  0
    2.1434   -1.2375    0.0000 C   0  0  0  0  0  0  0  0  0  0  0  0
    2.8579   -1.6500    0.0000 C   0  0  0  0  0  0  0  0  0  0  0  0
    3.5724   -1.2375    0.0000 C   0  0  0  0  0  0  0  0  0  0  0  0
    4.2868   -1.6500    0.0000 C   0  0  0  0  0  0  0  0  0  0  0  0
    5.0013   -1.2375    0.0000 C   0  0  0  0  0  0  0  0  0  0  0  0
    5.7158   -1.6500    0.0000 C   0  0  0  0  0  0  0  0  0  0  0  0
    5.7158   -2.4750    0.0000 C   0  0  0  0  0  0  0  0  0  0  0  0
    5.0013   -2.8875    0.0000 C   0  0  0  0  0  0  0  0  0  0  0  0
    4.2868   -2.4750    0.0000 C   0  0  0  0  0  0  0  0  0  0  0  0
    3.5724   -2.8875    0.0000 C   0  0  0  0  0  0  0  0  0  0  0  0
    2.8579   -2.4750    0.0000 C   0  0  0  0  0  0  0  0  0  0  0  0
    2.1434   -2.8875    0.0000 C   0  0  0  0  0  0  0  0  0  0  0  0
  1  2  1  0  0  0  0
  2  3  1  0  0  0  0
  3  4  1  0  0  0  0
  4  5  2  0  0  0  0
  4  6  1  0  0  0  0
  6  7  4  0  0  0  0
  7  8  1  0  0  0  0
  7  9  4  0  0  0  0
  9 10  4  0  0  0  0
 10 11  4  0  0  0  0
  6 11  4  0  0  0  0
 11 12  1  0  0  0  0
 12 13  1  0  0  0  0
 13 14  4  0  0  0  0
 14 15  4  0  0  0  0
 15 16  4  0  0  0  0
 16 17  4  0  0  0  0
 17 18  4  0  0  0  0
 18 19  4  0  0  0  0
 19 20  4  0  0  0  0
 20 21  4  0  0  0  0
 21 22  4  0  0  0  0
 22 23  4  0  0  0  0
 18 23  4  0  0  0  0
 23 24  4  0  0  0  0
 24 25  4  0  0  0  0
 16 25  4  0  0  0  0
 25 26  4  0  0  0  0
 13 26  4  0  0  0  0
M  END
> <IC50(uM)>
50.0

> <Outcome>
0.0

> <BindingDB ID>
51079168

> <BindingDB MonomerID>
50441276

> <BindingDB Ligand Name>
CHEMBL2431517

> <Curation/DataSource>
ChEMBL

> <Article DOI>
10.1021/jm400938g

> <PMID>
24073986

> <Patent Number>
?

> <Authors>
Xu, M; Zhu, J; Diao, Y; Zhou, H; Ren, X; Sun, D; Huang, J; Han, D; Zhao, Z; Zhu, L; Xu, Y; Li, H

> <Link to Ligand in BindingDB>
http://www.bindingdb.org/bind/chemsearch/marvin/MolStructure.jsp?monomerid=50441276

> <Link to Ligand-Target Pair in BindingDB>
http://www.bindingdb.org/jsp/dbsearch/PrimarySearch_ki.jsp?energyterm=kJ/mole&tag=r21&monomerid=50441276&enzyme=Dihydroorotate+dehydrogenase&column=ki&startPg=0&Increment=50&submit=Search

> <PubChem CID>
91898837

> <PubChem SID>
175453593

$$$$

  Mrv2115 07222212352D          

 25 27  0  0  0  0            999 V2000
    4.2340   -0.1857    0.0000 C   0  0  0  0  0  0  0  0  0  0  0  0
    3.7490   -0.8531    0.0000 C   0  0  0  0  0  0  0  0  0  0  0  0
    4.0040   -1.6377    0.0000 N   0  0  0  0  0  0  0  0  0  0  0  0
    3.3365   -2.1227    0.0000 C   0  0  0  0  0  0  0  0  0  0  0  0
    3.3365   -2.9477    0.0000 C   0  0  0  0  0  0  0  0  0  0  0  0
    2.6221   -3.3602    0.0000 O   0  0  0  0  0  0  0  0  0  0  0  0
    4.0510   -3.3602    0.0000 N   0  0  0  0  0  0  0  0  0  0  0  0
    4.0510   -4.1852    0.0000 C   0  0  0  0  0  0  0  0  0  0  0  0
    4.6344   -4.7685    0.0000 C   0  0  0  0  0  0  0  0  0  0  0  0
    4.0510   -5.3519    0.0000 C   0  0  0  0  0  0  0  0  0  0  0  0
    3.4677   -4.7685    0.0000 C   0  0  0  0  0  0  0  0  0  0  0  0
    2.6691   -1.6377    0.0000 C   0  0  0  0  0  0  0  0  0  0  0  0
    1.8845   -1.8927    0.0000 C   0  0  0  0  0  0  0  0  0  0  0  0
    2.9240   -0.8531    0.0000 C   0  0  0  0  0  0  0  0  0  0  0  0
    2.4391   -0.1857    0.0000 C   0  0  0  0  0  0  0  0  0  0  0  0
    2.7747    0.5680    0.0000 C   0  0  0  0  0  0  0  0  0  0  0  0
    2.2898    1.2354    0.0000 C   0  0  0  0  0  0  0  0  0  0  0  0
    2.6253    1.9891    0.0000 C   0  0  0  0  0  0  0  0  0  0  0  0
    3.4458    2.0753    0.0000 C   0  0  0  0  0  0  0  0  0  0  0  0
    3.7814    2.8290    0.0000 C   0  0  0  0  0  0  0  0  0  0  0  0
    4.1169    3.5827    0.0000 F   0  0  0  0  0  0  0  0  0  0  0  0
    4.5350    2.4935    0.0000 F   0  0  0  0  0  0  0  0  0  0  0  0
    3.0277    3.1646    0.0000 F   0  0  0  0  0  0  0  0  0  0  0  0
    3.9307    1.4079    0.0000 N   0  0  0  0  0  0  0  0  0  0  0  0
    3.5952    0.6542    0.0000 C   0  0  0  0  0  0  0  0  0  0  0  0
  1  2  1  0  0  0  0
  2  3  4  0  0  0  0
  3  4  4  0  0  0  0
  4  5  1  0  0  0  0
  5  6  2  0  0  0  0
  5  7  1  0  0  0  0
  7  8  1  0  0  0  0
  8  9  1  0  0  0  0
  9 10  1  0  0  0  0
 10 11  1  0  0  0  0
  8 11  1  0  0  0  0
  4 12  4  0  0  0  0
 12 13  1  0  0  0  0
 12 14  4  0  0  0  0
  2 14  4  0  0  0  0
 14 15  1  0  0  0  0
 15 16  1  0  0  0  0
 16 17  4  0  0  0  0
 17 18  4  0  0  0  0
 18 19  4  0  0  0  0
 19 20  1  0  0  0  0
 20 21  1  0  0  0  0
 20 22  1  0  0  0  0
 20 23  1  0  0  0  0
 19 24  4  0  0  0  0
 24 25  4  0  0  0  0
 16 25  4  0  0  0  0
M  STY  1   1 DAT
M  SAL   1  1   3
M  SDT   1 MRV_IMPLICIT_H                                        
M  SDD   1     0.5304   -0.4125    DR    ALL  0       0  
M  SED   1 IMPL_H1
M  END
> <IC50(uM)>
100.0

> <Outcome>
0.0

> <BindingDB ID>
51330091

> <BindingDB MonomerID>
50538339

> <BindingDB Ligand Name>
CHEMBL4645764

> <Curation/DataSource>
ChEMBL

> <Article DOI>
10.1021/acs.jmedchem.0c00311

> <PMID>
32248693

> <Patent Number>
?

> <Authors>
Kokkonda, S; Deng, X; White, KL; El Mazouni, F; White, J; Shackleford, DM; Katneni, K; Chiu, FCK; Barker, H; McLaren, J; Crighton, E; Chen, G; Angulo-Barturen, I; Jimenez-Diaz, MB; Ferrer, S; Huertas-Valentin, L; Martinez-Martinez, MS; Lafuente-Monasterio, MJ; Chittimalla, R; Shahi, SP; Wittlin, S; Waterson, D; Burrows, JN; Matthews, D; Tomchick, D; Rathod, PK; Palmer, MJ; Charman, SA; Phillips, MA

> <Link to Ligand in BindingDB>
http://www.bindingdb.org/bind/chemsearch/marvin/MolStructure.jsp?monomerid=50538339

> <Link to Ligand-Target Pair in BindingDB>
http://www.bindingdb.org/jsp/dbsearch/PrimarySearch_ki.jsp?energyterm=kJ/mole&tag=r21&monomerid=50538339&enzyme=Dihydroorotate+dehydrogenase&column=ki&startPg=0&Increment=50&submit=Search

> <PubChem CID>
156019205

> <PubChem SID>
442139902

$$$$

  Mrv2115 07222212352D          

 21 22  0  0  0  0            999 V2000
   -0.6078   -0.4741    0.0000 C   0  0  0  0  0  0  0  0  0  0  0  0
   -0.6078   -1.2991    0.0000 C   0  0  0  0  0  0  0  0  0  0  0  0
    0.0597   -1.7840    0.0000 N   0  0  0  0  0  0  0  0  0  0  0  0
   -0.1953   -2.5687    0.0000 N   0  0  0  0  0  0  0  0  0  0  0  0
   -1.0203   -2.5687    0.0000 C   0  0  0  0  0  0  0  0  0  0  0  0
   -1.5052   -3.2361    0.0000 N   0  0  0  0  0  0  0  0  0  0  0  0
   -1.1696   -3.9898    0.0000 C   0  0  0  0  0  0  0  0  0  0  0  0
   -0.3491   -4.0760    0.0000 C   0  0  0  0  0  0  0  0  0  0  0  0
   -0.0136   -4.8297    0.0000 C   0  0  0  0  0  0  0  0  0  0  0  0
   -0.4985   -5.4971    0.0000 C   0  0  0  0  0  0  0  0  0  0  0  0
   -0.1630   -6.2508    0.0000 C   0  0  0  0  0  0  0  0  0  0  0  0
    0.1726   -7.0045    0.0000 F   0  0  0  0  0  0  0  0  0  0  0  0
    0.5907   -5.9152    0.0000 F   0  0  0  0  0  0  0  0  0  0  0  0
   -0.9166   -6.5863    0.0000 F   0  0  0  0  0  0  0  0  0  0  0  0
   -1.3190   -5.4109    0.0000 C   0  0  0  0  0  0  0  0  0  0  0  0
   -1.6546   -4.6572    0.0000 C   0  0  0  0  0  0  0  0  0  0  0  0
   -1.2752   -1.7840    0.0000 C   0  0  0  0  0  0  0  0  0  0  0  0
   -2.0598   -1.5291    0.0000 C   0  0  0  0  0  0  0  0  0  0  0  0
   -2.6729   -2.0811    0.0000 C   0  0  0  0  0  0  0  0  0  0  0  0
   -2.2314   -0.7221    0.0000 N   0  0  0  0  0  0  0  0  0  0  0  0
   -3.0160   -0.4672    0.0000 N   0  0  0  0  0  0  0  0  0  0  0  0
  1  2  1  0  0  0  0
  2  3  4  0  0  0  0
  3  4  4  0  0  0  0
  4  5  4  0  0  0  0
  5  6  1  0  0  0  0
  6  7  1  0  0  0  0
  7  8  4  0  0  0  0
  8  9  4  0  0  0  0
  9 10  4  0  0  0  0
 10 11  1  0  0  0  0
 11 12  1  0  0  0  0
 11 13  1  0  0  0  0
 11 14  1  0  0  0  0
 10 15  4  0  0  0  0
 15 16  4  0  0  0  0
  7 16  4  0  0  0  0
  5 17  4  0  0  0  0
  2 17  4  0  0  0  0
 17 18  1  0  0  0  0
 18 19  1  0  0  0  0
 18 20  1  0  0  0  0
 20 21  2  0  0  0  0
M  STY  1   1 DAT
M  SAL   1  1   4
M  SDT   1 MRV_IMPLICIT_H                                        
M  SDD   1     0.5304   -0.4125    DR    ALL  0       0  
M  SED   1 IMPL_H1
M  END
> <IC50(uM)>
50.0

> <Outcome>
0.0

> <BindingDB ID>
50786763

> <BindingDB MonomerID>
50066583

> <BindingDB Ligand Name>
CHEMBL432427::[4-(1-Hydrazono-ethyl)-5-methyl-1H-pyrazol-3-yl]-(4-trifluoromethyl-phenyl)-amine

> <Curation/DataSource>
ChEMBL

> <Article DOI>
10.1021/jm981028c

> <PMID>
9719606

> <Patent Number>
?

> <Authors>
Papageorgiou, C; Albert, R; Floersheim, P; Lemaire, M; Bitch, F; Weber, HP; Andersen, E; Hungerford, V; Schreier, MH

> <Link to Ligand in BindingDB>
http://www.bindingdb.org/bind/chemsearch/marvin/MolStructure.jsp?monomerid=50066583

> <Link to Ligand-Target Pair in BindingDB>
http://www.bindingdb.org/jsp/dbsearch/PrimarySearch_ki.jsp?energyterm=kJ/mole&tag=r21&monomerid=50066583&enzyme=Dihydroorotate+dehydrogenase&column=ki&startPg=0&Increment=50&submit=Search

> <PubChem CID>
54197635

> <PubChem SID>
103961203

$$$$

  Mrv2115 07222212352D          

 35 38  0  0  0  0            999 V2000
   -0.6284    2.1599    0.0000 C   0  0  0  0  0  0  0  0  0  0  0  0
   -1.4534    2.1599    0.0000 C   0  0  0  0  0  0  0  0  0  0  0  0
   -1.8659    1.4455    0.0000 C   0  0  0  0  0  0  0  0  0  0  0  0
   -2.6909    1.4455    0.0000 C   0  0  0  0  0  0  0  0  0  0  0  0
   -3.1034    2.1599    0.0000 C   0  0  0  0  0  0  0  0  0  0  0  0
   -3.1034    0.7310    0.0000 O   0  0  0  0  0  0  0  0  0  0  0  0
   -2.6909    0.0165    0.0000 C   0  0  0  0  0  0  0  0  0  0  0  0
   -1.8659    0.0165    0.0000 C   0  0  0  0  0  0  0  0  0  0  0  0
   -1.4534   -0.6979    0.0000 C   0  0  0  0  0  0  0  0  0  0  0  0
   -0.6284   -0.6979    0.0000 N   0  0  0  0  0  0  0  0  0  0  0  0
   -0.1435   -1.3654    0.0000 N   0  0  0  0  0  0  0  0  0  0  0  0
    0.6411   -1.1104    0.0000 C   0  0  0  0  0  0  0  0  0  0  0  0
    0.6411   -0.2854    0.0000 N   0  0  0  0  0  0  0  0  0  0  0  0
   -0.1435   -0.0305    0.0000 C   0  0  0  0  0  0  0  0  0  0  0  0
   -0.3984    0.7541    0.0000 O   0  0  0  0  0  0  0  0  0  0  0  0
    1.3556    0.1271    0.0000 C   0  0  0  0  0  0  0  0  0  0  0  0
    2.0701   -0.2854    0.0000 C   0  0  0  0  0  0  0  0  0  0  0  0
    2.0701   -1.1104    0.0000 C   0  0  0  0  0  0  0  0  0  0  0  0
    1.3556   -1.5229    0.0000 C   0  0  0  0  0  0  0  0  0  0  0  0
   -1.8659   -1.4124    0.0000 C   0  0  0  0  0  0  0  0  0  0  0  0
   -1.4534   -2.1269    0.0000 F   0  0  0  0  0  0  0  0  0  0  0  0
   -2.6909   -1.4124    0.0000 C   0  0  0  0  0  0  0  0  0  0  0  0
   -3.1034   -0.6979    0.0000 C   0  0  0  0  0  0  0  0  0  0  0  0
   -3.9284   -0.6979    0.0000 C   0  0  0  0  0  0  0  0  0  0  0  0
   -4.3409    0.0165    0.0000 O   0  0  0  0  0  0  0  0  0  0  0  0
   -4.3409   -1.4124    0.0000 N   0  0  0  0  0  0  0  0  0  0  0  0
   -3.9284   -2.1269    0.0000 C   0  0  0  0  0  0  0  0  0  0  0  0
   -3.1034   -2.1269    0.0000 C   0  0  0  0  0  0  0  0  0  0  0  0
   -2.6909   -2.8414    0.0000 C   0  0  0  0  0  0  0  0  0  0  0  0
   -3.1034   -3.5558    0.0000 N   0  0  0  0  0  0  0  0  0  0  0  0
   -2.6909   -4.2703    0.0000 C   0  0  0  0  0  0  0  0  0  0  0  0
   -1.8659   -4.2703    0.0000 C   0  0  0  0  0  0  0  0  0  0  0  0
   -3.1034   -4.9848    0.0000 O   0  0  0  0  0  0  0  0  0  0  0  0
   -3.9284   -3.5558    0.0000 C   0  0  0  0  0  0  0  0  0  0  0  0
   -4.3409   -2.8414    0.0000 C   0  0  0  0  0  0  0  0  0  0  0  0
  1  2  1  0  0  0  0
  2  3  1  0  0  0  0
  3  4  1  0  0  0  0
  4  5  1  0  0  0  0
  4  6  1  0  0  0  0
  6  7  1  0  0  0  0
  7  8  4  0  0  0  0
  8  9  4  0  0  0  0
  9 10  1  0  0  0  0
 10 11  4  0  0  0  0
 11 12  4  0  0  0  0
 12 13  4  0  0  0  0
 13 14  4  0  0  0  0
 10 14  4  0  0  0  0
 14 15  2  0  0  0  0
 13 16  1  0  0  0  0
 16 17  1  0  0  0  0
 17 18  1  0  0  0  0
 18 19  1  0  0  0  0
 12 19  1  0  0  0  0
  9 20  4  0  0  0  0
 20 21  1  0  0  0  0
 20 22  4  0  0  0  0
 22 23  4  0  0  0  0
  7 23  4  0  0  0  0
 23 24  1  0  0  0  0
 24 25  2  0  0  0  0
 24 26  1  0  0  0  0
 26 27  1  0  0  0  0
 27 28  1  0  0  0  0
 28 29  1  0  0  0  0
 29 30  1  0  0  0  0
 30 31  1  0  0  0  0
 31 32  1  0  0  0  0
 31 33  2  0  0  0  0
 30 34  1  0  0  0  0
 34 35  1  0  0  0  0
 27 35  1  0  0  0  0
M  END
> <IC50(uM)>
5.9

> <Outcome>
0.0

> <BindingDB ID>
1020379

> <BindingDB MonomerID>
490336

> <BindingDB Ligand Name>
N-(1-acetylpiperidin-4-yl)-5-fluoro-4-(3-oxo-5,6,7,8-tetrahydro[1,2,4]triazolo[4,3-a]pyridin-2(3H)-yl)-2-[(2S)-pentan-2-yloxy]benzamide::US10968216, Example 4

> <Curation/DataSource>
US Patent

> <Article DOI>
?

> <PMID>
?

> <Patent Number>
US10968216

> <Authors>
Gradl, SN; Nguyen, D; Eis, K; Gunther, J; Stellfeld, T; Janzer, A; Christian, S; Mueller, T; Sheikh, SE; Zhou, HJ; Zhao, C; Sykes, DB; Ferrara, SJ; Liu, K; Herbert, SA; Merz, C; Niehues, M; Nising, CF; Schafer, M; Zimmermann, K; Knablein, J; Thede, K; Faupel, T

> <Link to Ligand in BindingDB>
http://www.bindingdb.org/bind/chemsearch/marvin/MolStructure.jsp?monomerid=490336

> <Link to Ligand-Target Pair in BindingDB>
http://www.bindingdb.org/jsp/dbsearch/PrimarySearch_ki.jsp?energyterm=kJ/mole&tag=r21&monomerid=490336&enzyme=Dihydroorotate+dehydrogenase&column=ki&startPg=0&Increment=50&submit=Search

> <PubChem CID>
134474104

> <PubChem SID>
447117063

$$$$

  Mrv2115 07222212352D          

 22 23  0  0  0  0            999 V2000
    0.7145   -1.2375    0.0000 O   0  0  0  0  0  0  0  0  0  0  0  0
    1.4289   -1.6500    0.0000 C   0  0  0  0  0  0  0  0  0  0  0  0
    2.1434   -1.2375    0.0000 O   0  0  0  0  0  0  0  0  0  0  0  0
    1.4289   -2.4750    0.0000 C   0  0  0  0  0  0  0  0  0  0  0  0
    2.1434   -2.8875    0.0000 C   0  0  0  0  0  0  0  0  0  0  0  0
    2.1434   -3.7125    0.0000 C   0  0  0  0  0  0  0  0  0  0  0  0
    1.4289   -4.1250    0.0000 C   0  0  0  0  0  0  0  0  0  0  0  0
    1.4289   -4.9500    0.0000 C   0  0  0  0  0  0  0  0  0  0  0  0
    2.1434   -5.3625    0.0000 C   0  0  0  0  0  0  0  0  0  0  0  0
    2.1434   -6.1875    0.0000 C   0  0  0  0  0  0  0  0  0  0  0  0
    2.8579   -6.6000    0.0000 C   0  0  0  0  0  0  0  0  0  0  0  0
    3.5724   -6.1875    0.0000 C   0  0  0  0  0  0  0  0  0  0  0  0
    4.2868   -6.6000    0.0000 O   0  0  0  0  0  0  0  0  0  0  0  0
    3.5724   -5.3625    0.0000 O   0  0  0  0  0  0  0  0  0  0  0  0
    2.8579   -7.4250    0.0000 N   0  0  0  0  0  0  0  0  0  0  0  0
    2.1434   -7.8375    0.0000 C   0  0  0  0  0  0  0  0  0  0  0  0
    2.1434   -8.6625    0.0000 O   0  0  0  0  0  0  0  0  0  0  0  0
    1.4289   -7.4250    0.0000 N   0  0  0  0  0  0  0  0  0  0  0  0
    1.4289   -6.6000    0.0000 C   0  0  0  0  0  0  0  0  0  0  0  0
    0.7145   -6.1875    0.0000 O   0  0  0  0  0  0  0  0  0  0  0  0
    0.7145   -3.7125    0.0000 C   0  0  0  0  0  0  0  0  0  0  0  0
    0.7145   -2.8875    0.0000 C   0  0  0  0  0  0  0  0  0  0  0  0
  1  2  2  0  0  0  0
  2  3  1  0  0  0  0
  2  4  1  0  0  0  0
  4  5  4  0  0  0  0
  5  6  4  0  0  0  0
  6  7  4  0  0  0  0
  7  8  1  0  0  0  0
  8  9  1  0  0  0  0
  9 10  1  0  0  0  0
 10 11  4  0  0  0  0
 11 12  1  0  0  0  0
 12 13  2  0  0  0  0
 12 14  1  0  0  0  0
 11 15  4  0  0  0  0
 15 16  4  0  0  0  0
 16 17  2  0  0  0  0
 16 18  4  0  0  0  0
 18 19  4  0  0  0  0
 10 19  4  0  0  0  0
 19 20  2  0  0  0  0
  7 21  4  0  0  0  0
 21 22  4  0  0  0  0
  4 22  4  0  0  0  0
M  STY  2   1 DAT   2 DAT
M  SAL   1  1  15
M  SDT   1 MRV_IMPLICIT_H                                        
M  SDD   1     0.5304   -0.4125    DR    ALL  0       0  
M  SED   1 IMPL_H1
M  SAL   2  1  18
M  SDT   2 MRV_IMPLICIT_H                                        
M  SDD   2     0.5304   -0.4125    DR    ALL  0       0  
M  SED   2 IMPL_H1
M  END
> <IC50(uM)>
0.25

> <Outcome>
1.0

> <BindingDB ID>
50555216

> <BindingDB MonomerID>
50211692

> <BindingDB Ligand Name>
CHEMBL3944370

> <Curation/DataSource>
ChEMBL

> <Article DOI>
10.1016/j.bmc.2017.01.009

> <PMID>
28118956

> <Patent Number>
?

> <Authors>
Inaoka, DK; Iida, M; Hashimoto, S; Tabuchi, T; Kuranaga, T; Balogun, EO; Honma, T; Tanaka, A; Harada, S; Nara, T; Kita, K; Inoue, M

> <Link to Ligand in BindingDB>
http://www.bindingdb.org/bind/chemsearch/marvin/MolStructure.jsp?monomerid=50211692

> <Link to Ligand-Target Pair in BindingDB>
http://www.bindingdb.org/jsp/dbsearch/PrimarySearch_ki.jsp?energyterm=kJ/mole&tag=r21&monomerid=50211692&enzyme=Dihydroorotate+dehydrogenase&column=ki&startPg=0&Increment=50&submit=Search

> <PubChem CID>
134146144

> <PubChem SID>
375983035

$$$$

  Mrv2115 07222212352D          

 28 32  0  0  0  0            999 V2000
    1.4358   -2.7631    0.0000 O   0  0  0  0  0  0  0  0  0  0  0  0
    0.8838   -2.1500    0.0000 C   0  0  0  0  0  0  0  0  0  0  0  0
    0.0768   -2.3215    0.0000 N   0  0  0  0  0  0  0  0  0  0  0  0
   -0.1781   -3.1062    0.0000 C   0  0  0  0  0  0  0  0  0  0  0  0
    0.3739   -3.7192    0.0000 C   0  0  0  0  0  0  0  0  0  0  0  0
    0.1190   -4.5039    0.0000 C   0  0  0  0  0  0  0  0  0  0  0  0
   -0.6880   -4.6754    0.0000 C   0  0  0  0  0  0  0  0  0  0  0  0
   -1.2400   -4.0623    0.0000 C   0  0  0  0  0  0  0  0  0  0  0  0
   -0.9851   -3.2777    0.0000 C   0  0  0  0  0  0  0  0  0  0  0  0
   -1.6525   -2.7928    0.0000 C   0  0  0  0  0  0  0  0  0  0  0  0
   -2.3200   -3.2777    0.0000 N   0  0  0  0  0  0  0  0  0  0  0  0
   -2.0650   -4.0623    0.0000 N   0  0  0  0  0  0  0  0  0  0  0  0
   -2.5500   -4.7297    0.0000 C   0  0  0  0  0  0  0  0  0  0  0  0
   -2.2144   -5.4834    0.0000 C   0  0  0  0  0  0  0  0  0  0  0  0
   -2.6993   -6.1509    0.0000 C   0  0  0  0  0  0  0  0  0  0  0  0
   -3.5198   -6.0646    0.0000 C   0  0  0  0  0  0  0  0  0  0  0  0
   -3.8554   -5.3109    0.0000 C   0  0  0  0  0  0  0  0  0  0  0  0
   -3.3704   -4.6435    0.0000 C   0  0  0  0  0  0  0  0  0  0  0  0
   -3.7060   -3.8898    0.0000 F   0  0  0  0  0  0  0  0  0  0  0  0
    1.1387   -1.3654    0.0000 C   0  0  0  0  0  0  0  0  0  0  0  0
    0.6538   -0.6979    0.0000 N   0  0  0  0  0  0  0  0  0  0  0  0
    1.1387   -0.0305    0.0000 O   0  0  0  0  0  0  0  0  0  0  0  0
    1.9233   -0.2854    0.0000 C   0  0  0  0  0  0  0  0  0  0  0  0
    2.6378    0.1271    0.0000 C   0  0  0  0  0  0  0  0  0  0  0  0
    3.3523   -0.2854    0.0000 C   0  0  0  0  0  0  0  0  0  0  0  0
    3.3523   -1.1104    0.0000 C   0  0  0  0  0  0  0  0  0  0  0  0
    2.6378   -1.5229    0.0000 C   0  0  0  0  0  0  0  0  0  0  0  0
    1.9233   -1.1104    0.0000 C   0  0  0  0  0  0  0  0  0  0  0  0
  1  2  2  0  0  0  0
  2  3  1  0  0  0  0
  3  4  1  0  0  0  0
  4  5  1  0  0  0  0
  5  6  1  0  0  0  0
  6  7  1  0  0  0  0
  7  8  1  0  0  0  0
  8  9  4  0  0  0  0
  4  9  1  0  0  0  0
  9 10  4  0  0  0  0
 10 11  4  0  0  0  0
 11 12  4  0  0  0  0
  8 12  4  0  0  0  0
 12 13  1  0  0  0  0
 13 14  4  0  0  0  0
 14 15  4  0  0  0  0
 15 16  4  0  0  0  0
 16 17  4  0  0  0  0
 17 18  4  0  0  0  0
 13 18  4  0  0  0  0
 18 19  1  0  0  0  0
  2 20  1  0  0  0  0
 20 21  4  0  0  0  0
 21 22  4  0  0  0  0
 22 23  4  0  0  0  0
 23 24  4  0  0  0  0
 24 25  4  0  0  0  0
 25 26  4  0  0  0  0
 26 27  4  0  0  0  0
 27 28  4  0  0  0  0
 20 28  4  0  0  0  0
 23 28  4  0  0  0  0
M  END
> <IC50(uM)>
0.018

> <Outcome>
1.0

> <BindingDB ID>
993096

> <BindingDB MonomerID>
477598

> <BindingDB Ligand Name>
N-[(4R)-1-(2-fluorophenyl)-4,5,6,7-tetrahydro-1H-indazol-4-yl]-1,2-benzoxazole-3-carboxamide::US10889564, Example 28

> <Curation/DataSource>
US Patent

> <Article DOI>
?

> <PMID>
?

> <Patent Number>
US10889564

> <Authors>
Lain, S; Drummond, C; Leeuwen, IV; Haraldsson, M; Johansson, L; Sandberg, L; Yngve, U

> <Link to Ligand in BindingDB>
http://www.bindingdb.org/bind/chemsearch/marvin/MolStructure.jsp?monomerid=477598

> <Link to Ligand-Target Pair in BindingDB>
http://www.bindingdb.org/jsp/dbsearch/PrimarySearch_ki.jsp?energyterm=kJ/mole&tag=r21&monomerid=477598&enzyme=Dihydroorotate+dehydrogenase&column=ki&startPg=0&Increment=50&submit=Search

> <PubChem CID>
129104693

> <PubChem SID>
442137215

$$$$

  Mrv2115 07222212352D          

 22 24  0  0  0  0            999 V2000
    1.4289   -2.4750    0.0000 O   0  0  0  0  0  0  0  0  0  0  0  0
    1.4289   -1.6500    0.0000 C   0  0  0  0  0  0  0  0  0  0  0  0
    0.7145   -1.2375    0.0000 C   0  0  0  0  0  0  0  0  0  0  0  0
    0.0000   -1.6500    0.0000 O   0  0  0  0  0  0  0  0  0  0  0  0
    0.7145   -0.4125    0.0000 C   0  0  0  0  0  0  0  0  0  0  0  0
    0.0000    0.0000    0.0000 N   0  0  0  0  0  0  0  0  0  0  0  0
    0.0000    0.8250    0.0000 C   0  0  0  0  0  0  0  0  0  0  0  0
    0.7145    1.2375    0.0000 C   0  0  0  0  0  0  0  0  0  0  0  0
    0.7145    2.0625    0.0000 C   0  0  0  0  0  0  0  0  0  0  0  0
    0.0000    2.4750    0.0000 C   0  0  0  0  0  0  0  0  0  0  0  0
   -0.7145    2.0625    0.0000 C   0  0  0  0  0  0  0  0  0  0  0  0
   -1.4289    2.4750    0.0000 Cl  0  0  0  0  0  0  0  0  0  0  0  0
   -0.7145    1.2375    0.0000 C   0  0  0  0  0  0  0  0  0  0  0  0
   -1.4289    0.8250    0.0000 Cl  0  0  0  0  0  0  0  0  0  0  0  0
    1.4289    0.0000    0.0000 C   0  0  0  0  0  0  0  0  0  0  0  0
    1.4289    0.8250    0.0000 O   0  0  0  0  0  0  0  0  0  0  0  0
    2.1434   -0.4125    0.0000 C   0  0  0  0  0  0  0  0  0  0  0  0
    2.8579    0.0000    0.0000 C   0  0  0  0  0  0  0  0  0  0  0  0
    3.5724   -0.4125    0.0000 C   0  0  0  0  0  0  0  0  0  0  0  0
    3.5724   -1.2375    0.0000 C   0  0  0  0  0  0  0  0  0  0  0  0
    2.8579   -1.6500    0.0000 C   0  0  0  0  0  0  0  0  0  0  0  0
    2.1434   -1.2375    0.0000 C   0  0  0  0  0  0  0  0  0  0  0  0
  1  2  2  0  0  0  0
  2  3  1  0  0  0  0
  3  4  1  0  0  0  0
  3  5  2  0  0  0  0
  5  6  1  0  0  0  0
  6  7  1  0  0  0  0
  7  8  4  0  0  0  0
  8  9  4  0  0  0  0
  9 10  4  0  0  0  0
 10 11  4  0  0  0  0
 11 12  1  0  0  0  0
 11 13  4  0  0  0  0
  7 13  4  0  0  0  0
 13 14  1  0  0  0  0
  5 15  1  0  0  0  0
 15 16  2  0  0  0  0
 15 17  1  0  0  0  0
 17 18  4  0  0  0  0
 18 19  4  0  0  0  0
 19 20  4  0  0  0  0
 20 21  4  0  0  0  0
 21 22  4  0  0  0  0
 17 22  4  0  0  0  0
  2 22  1  0  0  0  0
M  END
> <IC50(uM)>
0.123

> <Outcome>
1.0

> <BindingDB ID>
51282851

> <BindingDB MonomerID>
50523223

> <BindingDB Ligand Name>
CHEMBL4540838

> <Curation/DataSource>
ChEMBL

> <Article DOI>
10.1016/j.ejmech.2019.02.018

> <PMID>
30776695

> <Patent Number>
?

> <Authors>
Calil, FA; David, JS; Chiappetta, ERC; Fumagalli, F; Mello, RB; Leite, FHA; Castilho, MS; Emery, FS; Nonato, MC

> <Link to Ligand in BindingDB>
http://www.bindingdb.org/bind/chemsearch/marvin/MolStructure.jsp?monomerid=50523223

> <Link to Ligand-Target Pair in BindingDB>
http://www.bindingdb.org/jsp/dbsearch/PrimarySearch_ki.jsp?energyterm=kJ/mole&tag=r21&monomerid=50523223&enzyme=Dihydroorotate+dehydrogenase&column=ki&startPg=0&Increment=50&submit=Search

> <PubChem CID>
155550675

> <PubChem SID>
440731805

$$$$

  Mrv2115 07222212352D          

 24 27  0  0  0  0            999 V2000
    3.9934    2.4750    0.0000 O   0  0  0  0  0  0  0  0  0  0  0  0
    3.2789    2.0625    0.0000 C   0  0  0  0  0  0  0  0  0  0  0  0
    2.5645    2.4750    0.0000 O   0  0  0  0  0  0  0  0  0  0  0  0
    3.2789    1.2375    0.0000 C   0  0  0  0  0  0  0  0  0  0  0  0
    3.9934    0.8250    0.0000 C   0  0  0  0  0  0  0  0  0  0  0  0
    3.9934    0.0000    0.0000 C   0  0  0  0  0  0  0  0  0  0  0  0
    3.2789   -0.4125    0.0000 C   0  0  0  0  0  0  0  0  0  0  0  0
    2.5645    0.0000    0.0000 C   0  0  0  0  0  0  0  0  0  0  0  0
    1.7798   -0.2549    0.0000 N   0  0  0  0  0  0  0  0  0  0  0  0
    1.2949    0.4125    0.0000 C   0  0  0  0  0  0  0  0  0  0  0  0
    0.4699    0.4125    0.0000 C   0  0  0  0  0  0  0  0  0  0  0  0
    0.0574   -0.3020    0.0000 C   0  0  0  0  0  0  0  0  0  0  0  0
   -0.7676   -0.3020    0.0000 C   0  0  0  0  0  0  0  0  0  0  0  0
   -1.1801    0.4125    0.0000 C   0  0  0  0  0  0  0  0  0  0  0  0
   -2.0051    0.4125    0.0000 C   0  0  0  0  0  0  0  0  0  0  0  0
   -2.4176   -0.3020    0.0000 C   0  0  0  0  0  0  0  0  0  0  0  0
   -3.2426   -0.3020    0.0000 C   0  0  0  0  0  0  0  0  0  0  0  0
   -3.6551    0.4125    0.0000 C   0  0  0  0  0  0  0  0  0  0  0  0
   -3.2426    1.1270    0.0000 C   0  0  0  0  0  0  0  0  0  0  0  0
   -2.4176    1.1270    0.0000 C   0  0  0  0  0  0  0  0  0  0  0  0
   -0.7676    1.1270    0.0000 C   0  0  0  0  0  0  0  0  0  0  0  0
    0.0574    1.1270    0.0000 C   0  0  0  0  0  0  0  0  0  0  0  0
    1.7798    1.0799    0.0000 N   0  0  0  0  0  0  0  0  0  0  0  0
    2.5645    0.8250    0.0000 C   0  0  0  0  0  0  0  0  0  0  0  0
  1  2  2  0  0  0  0
  2  3  1  0  0  0  0
  2  4  1  0  0  0  0
  4  5  4  0  0  0  0
  5  6  4  0  0  0  0
  6  7  4  0  0  0  0
  7  8  4  0  0  0  0
  8  9  4  0  0  0  0
  9 10  4  0  0  0  0
 10 11  1  0  0  0  0
 11 12  4  0  0  0  0
 12 13  4  0  0  0  0
 13 14  4  0  0  0  0
 14 15  1  0  0  0  0
 15 16  4  0  0  0  0
 16 17  4  0  0  0  0
 17 18  4  0  0  0  0
 18 19  4  0  0  0  0
 19 20  4  0  0  0  0
 15 20  4  0  0  0  0
 14 21  4  0  0  0  0
 21 22  4  0  0  0  0
 11 22  4  0  0  0  0
 10 23  4  0  0  0  0
 23 24  4  0  0  0  0
  4 24  4  0  0  0  0
  8 24  4  0  0  0  0
M  STY  1   1 DAT
M  SAL   1  1   9
M  SDT   1 MRV_IMPLICIT_H                                        
M  SDD   1     0.5304   -0.4125    DR    ALL  0       0  
M  SED   1 IMPL_H1
M  END
> <IC50(uM)>
0.7725

> <Outcome>
1.0

> <BindingDB ID>
50358230; 297741

> <BindingDB MonomerID>
155397

> <BindingDB Ligand Name>
US9006454, I1

> <Curation/DataSource>
ChEMBL; US Patent

> <Article DOI>
10.1016/j.bmc.2015.05.051; ?

> <PMID>
26088338; ?

> <Patent Number>
?; US9006454

> <Authors>
Abdullah, I; Chee, CF; Lee, YK; Thunuguntla, SS; Satish Reddy, K; Nellore, K; Antony, T; Verma, J; Mun, KW; Othman, S; Subramanya, H; Rahman, NA; Thunuguntla, SS; Subramanya, H; Kunnam, SR; Sanivaru Vijay, SR; Bingi, C; Kusanur, R; Schwarz, M; Arlt, M

> <Link to Ligand in BindingDB>
http://www.bindingdb.org/bind/chemsearch/marvin/MolStructure.jsp?monomerid=155397

> <Link to Ligand-Target Pair in BindingDB>
http://www.bindingdb.org/jsp/dbsearch/PrimarySearch_ki.jsp?energyterm=kJ/mole&tag=r21&monomerid=155397&enzyme=Dihydroorotate+dehydrogenase&column=ki&startPg=0&Increment=50&submit=Search

> <PubChem CID>
46945388

> <PubChem SID>
253658335

$$$$

  Mrv2115 07222212352D          

 27 29  0  0  0  0            999 V2000
   -3.8871   -5.0906    0.0000 C   0  0  0  0  0  0  0  0  0  0  0  0
   -3.1727   -4.6781    0.0000 C   0  0  0  0  0  0  0  0  0  0  0  0
   -2.4582   -5.0906    0.0000 C   0  0  0  0  0  0  0  0  0  0  0  0
   -1.7437   -4.6781    0.0000 O   0  0  0  0  0  0  0  0  0  0  0  0
   -1.0293   -5.0906    0.0000 C   0  0  0  0  0  0  0  0  0  0  0  0
   -1.0293   -5.9156    0.0000 O   0  0  0  0  0  0  0  0  0  0  0  0
   -0.3148   -4.6781    0.0000 C   0  0  0  0  0  0  0  0  0  0  0  0
   -0.3148   -3.8531    0.0000 C   0  0  0  0  0  0  0  0  0  0  0  0
    0.3997   -3.4406    0.0000 C   0  0  0  0  0  0  0  0  0  0  0  0
    1.1142   -3.8531    0.0000 C   0  0  0  0  0  0  0  0  0  0  0  0
    1.1142   -4.6781    0.0000 C   0  0  0  0  0  0  0  0  0  0  0  0
    0.3997   -5.0906    0.0000 C   0  0  0  0  0  0  0  0  0  0  0  0
    0.3997   -5.9156    0.0000 C   0  0  0  0  0  0  0  0  0  0  0  0
   -0.3148   -6.3281    0.0000 N   0  0  0  0  0  0  0  0  0  0  0  0
   -0.3148   -7.1531    0.0000 N   0  0  0  0  0  0  0  0  0  0  0  0
    0.3997   -7.5656    0.0000 C   0  0  0  0  0  0  0  0  0  0  0  0
    1.1534   -7.2300    0.0000 N   0  0  0  0  0  0  0  0  0  0  0  0
    1.7054   -7.8431    0.0000 C   0  0  0  0  0  0  0  0  0  0  0  0
    2.5259   -7.7569    0.0000 C   0  0  0  0  0  0  0  0  0  0  0  0
    2.8614   -7.0032    0.0000 C   0  0  0  0  0  0  0  0  0  0  0  0
    3.6819   -6.9170    0.0000 C   0  0  0  0  0  0  0  0  0  0  0  0
    4.1668   -7.5844    0.0000 C   0  0  0  0  0  0  0  0  0  0  0  0
    3.8313   -8.3381    0.0000 C   0  0  0  0  0  0  0  0  0  0  0  0
    3.0108   -8.4243    0.0000 C   0  0  0  0  0  0  0  0  0  0  0  0
    2.6752   -9.1780    0.0000 Cl  0  0  0  0  0  0  0  0  0  0  0  0
    1.2929   -8.5576    0.0000 C   0  0  0  0  0  0  0  0  0  0  0  0
    0.4859   -8.3860    0.0000 S   0  0  0  0  0  0  0  0  0  0  0  0
  1  2  1  0  0  0  0
  2  3  1  0  0  0  0
  3  4  1  0  0  0  0
  4  5  1  0  0  0  0
  5  6  2  0  0  0  0
  5  7  1  0  0  0  0
  7  8  4  0  0  0  0
  8  9  4  0  0  0  0
  9 10  4  0  0  0  0
 10 11  4  0  0  0  0
 11 12  4  0  0  0  0
  7 12  4  0  0  0  0
 12 13  1  0  0  0  0
 13 14  2  0  0  0  0
 14 15  1  0  0  0  0
 15 16  1  0  0  0  0
 16 17  4  0  0  0  0
 17 18  4  0  0  0  0
 18 19  1  0  0  0  0
 19 20  4  0  0  0  0
 20 21  4  0  0  0  0
 21 22  4  0  0  0  0
 22 23  4  0  0  0  0
 23 24  4  0  0  0  0
 19 24  4  0  0  0  0
 24 25  1  0  0  0  0
 18 26  4  0  0  0  0
 26 27  4  0  0  0  0
 16 27  4  0  0  0  0
M  END
> <IC50(uM)>
1.405

> <Outcome>
0.0

> <BindingDB ID>
1001136

> <BindingDB MonomerID>
482822

> <BindingDB Ligand Name>
US10919869, No.  A2

> <Curation/DataSource>
US Patent

> <Article DOI>
?

> <PMID>
?

> <Patent Number>
US10919869

> <Authors>
Li, H; Xu, Y; Wang, R; Zhao, Z; Song, W; Xu, L

> <Link to Ligand in BindingDB>
http://www.bindingdb.org/bind/chemsearch/marvin/MolStructure.jsp?monomerid=482822

> <Link to Ligand-Target Pair in BindingDB>
http://www.bindingdb.org/jsp/dbsearch/PrimarySearch_ki.jsp?energyterm=kJ/mole&tag=r21&monomerid=482822&enzyme=Dihydroorotate+dehydrogenase&column=ki&startPg=0&Increment=50&submit=Search

> <PubChem CID>
132157972

> <PubChem SID>
443551963

$$$$

  Mrv2115 07222212352D          

 32 36  0  0  0  0            999 V2000
    0.8838   -2.1500    0.0000 C   0  0  0  0  0  0  0  0  0  0  0  0
    1.1387   -1.3654    0.0000 N   0  0  0  0  0  0  0  0  0  0  0  0
    0.6538   -0.6979    0.0000 N   0  0  0  0  0  0  0  0  0  0  0  0
    1.1387   -0.0305    0.0000 N   0  0  0  0  0  0  0  0  0  0  0  0
    1.9233   -0.2854    0.0000 C   0  0  0  0  0  0  0  0  0  0  0  0
    2.6378    0.1271    0.0000 C   0  0  0  0  0  0  0  0  0  0  0  0
    3.3523   -0.2854    0.0000 C   0  0  0  0  0  0  0  0  0  0  0  0
    4.0668    0.1271    0.0000 C   0  0  0  0  0  0  0  0  0  0  0  0
    4.0668    0.9521    0.0000 C   0  0  0  0  0  0  0  0  0  0  0  0
    4.7812    1.3646    0.0000 C   0  0  0  0  0  0  0  0  0  0  0  0
    5.4957    0.9521    0.0000 C   0  0  0  0  0  0  0  0  0  0  0  0
    6.2102    1.3646    0.0000 C   0  0  0  0  0  0  0  0  0  0  0  0
    6.2102    2.1896    0.0000 C   0  0  0  0  0  0  0  0  0  0  0  0
    6.9246    2.6021    0.0000 C   0  0  0  0  0  0  0  0  0  0  0  0
    7.6391    2.1896    0.0000 C   0  0  0  0  0  0  0  0  0  0  0  0
    7.6391    1.3646    0.0000 C   0  0  0  0  0  0  0  0  0  0  0  0
    6.9246    0.9521    0.0000 C   0  0  0  0  0  0  0  0  0  0  0  0
    6.9246    0.1271    0.0000 C   0  0  0  0  0  0  0  0  0  0  0  0
    7.6391   -0.2854    0.0000 N   0  0  0  0  0  0  0  0  0  0  0  0
    8.3536    0.1271    0.0000 C   0  0  0  0  0  0  0  0  0  0  0  0
    9.0681   -0.2854    0.0000 C   0  0  0  0  0  0  0  0  0  0  0  0
    9.0681   -1.1104    0.0000 O   0  0  0  0  0  0  0  0  0  0  0  0
    8.3536   -1.5229    0.0000 C   0  0  0  0  0  0  0  0  0  0  0  0
    7.6391   -1.1104    0.0000 C   0  0  0  0  0  0  0  0  0  0  0  0
    5.4957    0.1271    0.0000 C   0  0  0  0  0  0  0  0  0  0  0  0
    4.7812   -0.2854    0.0000 C   0  0  0  0  0  0  0  0  0  0  0  0
    3.3523   -1.1104    0.0000 C   0  0  0  0  0  0  0  0  0  0  0  0
    2.6378   -1.5229    0.0000 C   0  0  0  0  0  0  0  0  0  0  0  0
    2.6378   -2.3479    0.0000 C   0  0  0  0  0  0  0  0  0  0  0  0
    1.9233   -2.7604    0.0000 O   0  0  0  0  0  0  0  0  0  0  0  0
    3.3523   -2.7604    0.0000 O   0  0  0  0  0  0  0  0  0  0  0  0
    1.9233   -1.1104    0.0000 C   0  0  0  0  0  0  0  0  0  0  0  0
  1  2  1  0  0  0  0
  2  3  4  0  0  0  0
  3  4  4  0  0  0  0
  4  5  4  0  0  0  0
  5  6  4  0  0  0  0
  6  7  4  0  0  0  0
  7  8  1  0  0  0  0
  8  9  4  0  0  0  0
  9 10  4  0  0  0  0
 10 11  4  0  0  0  0
 11 12  1  0  0  0  0
 12 13  4  0  0  0  0
 13 14  4  0  0  0  0
 14 15  4  0  0  0  0
 15 16  4  0  0  0  0
 16 17  4  0  0  0  0
 12 17  4  0  0  0  0
 17 18  1  0  0  0  0
 18 19  1  0  0  0  0
 19 20  1  0  0  0  0
 20 21  1  0  0  0  0
 21 22  1  0  0  0  0
 22 23  1  0  0  0  0
 23 24  1  0  0  0  0
 19 24  1  0  0  0  0
 11 25  4  0  0  0  0
 25 26  4  0  0  0  0
  8 26  4  0  0  0  0
  7 27  4  0  0  0  0
 27 28  4  0  0  0  0
 28 29  1  0  0  0  0
 29 30  2  0  0  0  0
 29 31  1  0  0  0  0
 28 32  4  0  0  0  0
  5 32  4  0  0  0  0
  2 32  4  0  0  0  0
M  END
> <IC50(uM)>
0.55

> <Outcome>
1.0

> <BindingDB ID>
1100168

> <BindingDB MonomerID>
520627

> <BindingDB Ligand Name>
1-methyl-5-(2'-(morpholinomethyl)-[1,1'-biphenyl]-4-yl)-1H-benzo[d][1,2,3]triazole- 7-carboxylic acid;::US11147801, Compound 25

> <Curation/DataSource>
US Patent

> <Article DOI>
?

> <PMID>
?

> <Patent Number>
US11147801

> <Authors>
Nellore, K; Hosahalli, S

> <Link to Ligand in BindingDB>
http://www.bindingdb.org/bind/chemsearch/marvin/MolStructure.jsp?monomerid=520627

> <Link to Ligand-Target Pair in BindingDB>
http://www.bindingdb.org/jsp/dbsearch/PrimarySearch_ki.jsp?energyterm=kJ/mole&tag=r21&monomerid=520627&enzyme=Dihydroorotate+dehydrogenase&column=ki&startPg=0&Increment=50&submit=Search

> <PubChem CID>
?

> <PubChem SID>
?

$$$$

  Mrv2115 07222212352D          

 34 37  0  0  0  0            999 V2000
   -5.1659    1.4455    0.0000 C   0  0  0  0  0  0  0  0  0  0  0  0
   -5.5784    0.7310    0.0000 C   0  0  0  0  0  0  0  0  0  0  0  0
   -6.4034    0.7310    0.0000 C   0  0  0  0  0  0  0  0  0  0  0  0
   -6.8159    0.0165    0.0000 C   0  0  0  0  0  0  0  0  0  0  0  0
   -6.4034   -0.6979    0.0000 C   0  0  0  0  0  0  0  0  0  0  0  0
   -5.5784   -0.6979    0.0000 C   0  0  0  0  0  0  0  0  0  0  0  0
   -5.1659   -1.4124    0.0000 F   0  0  0  0  0  0  0  0  0  0  0  0
   -5.1659    0.0165    0.0000 C   0  0  0  0  0  0  0  0  0  0  0  0
   -4.3409    0.0165    0.0000 N   0  0  0  0  0  0  0  0  0  0  0  0
   -3.9284   -0.6979    0.0000 C   0  0  0  0  0  0  0  0  0  0  0  0
   -4.3409   -1.4124    0.0000 O   0  0  0  0  0  0  0  0  0  0  0  0
   -3.1034   -0.6979    0.0000 C   0  0  0  0  0  0  0  0  0  0  0  0
   -2.6909    0.0165    0.0000 C   0  0  0  0  0  0  0  0  0  0  0  0
   -1.8659    0.0165    0.0000 C   0  0  0  0  0  0  0  0  0  0  0  0
   -1.4534    0.7310    0.0000 F   0  0  0  0  0  0  0  0  0  0  0  0
   -1.4534   -0.6979    0.0000 C   0  0  0  0  0  0  0  0  0  0  0  0
   -0.6284   -0.6979    0.0000 N   0  0  0  0  0  0  0  0  0  0  0  0
   -0.1435   -1.3654    0.0000 N   0  0  0  0  0  0  0  0  0  0  0  0
    0.6411   -1.1104    0.0000 C   0  0  0  0  0  0  0  0  0  0  0  0
    0.6411   -0.2854    0.0000 N   0  0  0  0  0  0  0  0  0  0  0  0
   -0.1435   -0.0305    0.0000 C   0  0  0  0  0  0  0  0  0  0  0  0
   -0.3984    0.7541    0.0000 O   0  0  0  0  0  0  0  0  0  0  0  0
    1.3556    0.1271    0.0000 C   0  0  0  0  0  0  0  0  0  0  0  0
    2.0701   -0.2854    0.0000 C   0  0  0  0  0  0  0  0  0  0  0  0
    2.0701   -1.1104    0.0000 C   0  0  0  0  0  0  0  0  0  0  0  0
    1.3556   -1.5229    0.0000 C   0  0  0  0  0  0  0  0  0  0  0  0
   -1.8659   -1.4124    0.0000 C   0  0  0  0  0  0  0  0  0  0  0  0
   -2.6909   -1.4124    0.0000 C   0  0  0  0  0  0  0  0  0  0  0  0
   -3.1034   -2.1269    0.0000 O   0  0  0  0  0  0  0  0  0  0  0  0
   -2.6909   -2.8414    0.0000 C   0  0  0  0  0  0  0  0  0  0  0  0
   -3.1034   -3.5558    0.0000 C   0  0  0  0  0  0  0  0  0  0  0  0
   -1.8659   -2.8414    0.0000 C   0  0  0  0  0  0  0  0  0  0  0  0
   -1.4534   -2.1269    0.0000 C   0  0  0  0  0  0  0  0  0  0  0  0
   -1.4534   -3.5558    0.0000 O   0  0  0  0  0  0  0  0  0  0  0  0
  1  2  1  0  0  0  0
  2  3  4  0  0  0  0
  3  4  4  0  0  0  0
  4  5  4  0  0  0  0
  5  6  4  0  0  0  0
  6  7  1  0  0  0  0
  6  8  4  0  0  0  0
  2  8  4  0  0  0  0
  8  9  1  0  0  0  0
  9 10  1  0  0  0  0
 10 11  2  0  0  0  0
 10 12  1  0  0  0  0
 12 13  4  0  0  0  0
 13 14  4  0  0  0  0
 14 15  1  0  0  0  0
 14 16  4  0  0  0  0
 16 17  1  0  0  0  0
 17 18  4  0  0  0  0
 18 19  4  0  0  0  0
 19 20  4  0  0  0  0
 20 21  4  0  0  0  0
 17 21  4  0  0  0  0
 21 22  2  0  0  0  0
 20 23  1  0  0  0  0
 23 24  1  0  0  0  0
 24 25  1  0  0  0  0
 25 26  1  0  0  0  0
 19 26  1  0  0  0  0
 16 27  4  0  0  0  0
 27 28  4  0  0  0  0
 12 28  4  0  0  0  0
 28 29  1  0  0  0  0
 29 30  1  0  0  0  0
 30 31  1  0  0  0  0
 30 32  1  0  0  0  0
 32 33  1  0  0  0  0
 32 34  1  0  0  0  0
M  END
> <IC50(uM)>
7.0

> <Outcome>
0.0

> <BindingDB ID>
1020670

> <BindingDB MonomerID>
490596

> <BindingDB Ligand Name>
5-fluoro-N-(2-fluoro-6-methylphenyl)-2-{[(2R,3R)-3-hydroxybutan-2-yl]oxy}-4-(3-oxo-5,6,7,8-tetrahydro[1,2,4]triazolo[4,3-a]pyridin-2(3H)-yl)benzamide::US10968216, Example 264

> <Curation/DataSource>
US Patent

> <Article DOI>
?

> <PMID>
?

> <Patent Number>
US10968216

> <Authors>
Gradl, SN; Nguyen, D; Eis, K; Gunther, J; Stellfeld, T; Janzer, A; Christian, S; Mueller, T; Sheikh, SE; Zhou, HJ; Zhao, C; Sykes, DB; Ferrara, SJ; Liu, K; Herbert, SA; Merz, C; Niehues, M; Nising, CF; Schafer, M; Zimmermann, K; Knablein, J; Thede, K; Faupel, T

> <Link to Ligand in BindingDB>
http://www.bindingdb.org/bind/chemsearch/marvin/MolStructure.jsp?monomerid=490596

> <Link to Ligand-Target Pair in BindingDB>
http://www.bindingdb.org/jsp/dbsearch/PrimarySearch_ki.jsp?energyterm=kJ/mole&tag=r21&monomerid=490596&enzyme=Dihydroorotate+dehydrogenase&column=ki&startPg=0&Increment=50&submit=Search

> <PubChem CID>
142335880

> <PubChem SID>
447117322

$$$$

  Mrv2115 07222212352D          

 29 30  0  0  0  0            999 V2000
    0.0000   -2.4750    0.0000 O   0  0  0  0  0  0  0  0  0  0  0  0
   -0.7145   -2.8875    0.0000 C   0  0  0  0  0  0  0  0  0  0  0  0
   -1.4289   -2.4750    0.0000 O   0  5  0  0  0  0  0  0  0  0  0  0
   -0.7145   -3.7125    0.0000 C   0  0  0  0  0  0  0  0  0  0  0  0
    0.0000   -4.1250    0.0000 C   0  0  0  0  0  0  0  0  0  0  0  0
    0.0000   -4.9500    0.0000 C   0  0  0  0  0  0  0  0  0  0  0  0
   -0.7145   -5.3625    0.0000 N   0  0  0  0  0  0  0  0  0  0  0  0
   -1.4289   -4.9500    0.0000 C   0  0  0  0  0  0  0  0  0  0  0  0
   -1.4289   -4.1250    0.0000 C   0  0  0  0  0  0  0  0  0  0  0  0
   -2.1434   -3.7125    0.0000 N   0  0  0  0  0  0  0  0  0  0  0  0
   -2.8579   -4.1250    0.0000 C   0  0  0  0  0  0  0  0  0  0  0  0
   -2.8579   -4.9500    0.0000 C   0  0  0  0  0  0  0  0  0  0  0  0
   -3.5724   -5.3625    0.0000 C   0  0  0  0  0  0  0  0  0  0  0  0
   -4.2868   -4.9500    0.0000 C   0  0  0  0  0  0  0  0  0  0  0  0
   -5.0013   -5.3625    0.0000 C   0  0  0  0  0  0  0  0  0  0  0  0
   -5.0013   -6.1875    0.0000 C   0  0  0  0  0  0  0  0  0  0  0  0
   -5.7158   -6.6000    0.0000 C   0  0  0  0  0  0  0  0  0  0  0  0
   -6.4302   -6.1875    0.0000 C   0  0  0  0  0  0  0  0  0  0  0  0
   -6.4302   -5.3625    0.0000 C   0  0  0  0  0  0  0  0  0  0  0  0
   -7.1447   -4.9500    0.0000 O   0  0  0  0  0  0  0  0  0  0  0  0
   -7.8592   -5.3625    0.0000 C   0  0  0  0  0  0  0  0  0  0  0  0
   -8.5737   -5.7750    0.0000 F   0  0  0  0  0  0  0  0  0  0  0  0
   -7.4467   -6.0770    0.0000 F   0  0  0  0  0  0  0  0  0  0  0  0
   -8.2717   -4.6480    0.0000 F   0  0  0  0  0  0  0  0  0  0  0  0
   -5.7158   -4.9500    0.0000 C   0  0  0  0  0  0  0  0  0  0  0  0
   -4.2868   -4.1250    0.0000 C   0  0  0  0  0  0  0  0  0  0  0  0
   -3.5724   -3.7125    0.0000 C   0  0  0  0  0  0  0  0  0  0  0  0
   -3.5724   -2.8875    0.0000 F   0  0  0  0  0  0  0  0  0  0  0  0
   -2.1434   -2.0625    0.0000 Li  0  3  0  0  0  0  0  0  0  0  0  0
  1  2  2  0  0  0  0
  2  3  1  0  0  0  0
  2  4  1  0  0  0  0
  4  5  4  0  0  0  0
  5  6  4  0  0  0  0
  6  7  4  0  0  0  0
  7  8  4  0  0  0  0
  8  9  4  0  0  0  0
  4  9  4  0  0  0  0
  9 10  1  0  0  0  0
 10 11  1  0  0  0  0
 11 12  4  0  0  0  0
 12 13  4  0  0  0  0
 13 14  4  0  0  0  0
 14 15  1  0  0  0  0
 15 16  4  0  0  0  0
 16 17  4  0  0  0  0
 17 18  4  0  0  0  0
 18 19  4  0  0  0  0
 19 20  1  0  0  0  0
 20 21  1  0  0  0  0
 21 22  1  0  0  0  0
 21 23  1  0  0  0  0
 21 24  1  0  0  0  0
 19 25  4  0  0  0  0
 15 25  4  0  0  0  0
 14 26  4  0  0  0  0
 26 27  4  0  0  0  0
 11 27  4  0  0  0  0
 27 28  1  0  0  0  0
M  CHG  2   3  -1  29   1
M  END
> <IC50(uM)>
0.2

> <Outcome>
1.0

> <BindingDB ID>
246908

> <BindingDB MonomerID>
119815

> <BindingDB Ligand Name>
US8691852, 24

> <Curation/DataSource>
US Patent

> <Article DOI>
?

> <PMID>
?

> <Patent Number>
US8691852

> <Authors>
Castro Palomino Laria, JC; Erra Sola, M; Lozoya Toribio, ME; Navarro Romero, E

> <Link to Ligand in BindingDB>
http://www.bindingdb.org/bind/chemsearch/marvin/MolStructure.jsp?monomerid=119815

> <Link to Ligand-Target Pair in BindingDB>
http://www.bindingdb.org/jsp/dbsearch/PrimarySearch_ki.jsp?energyterm=kJ/mole&tag=r21&monomerid=119815&enzyme=Dihydroorotate+dehydrogenase&column=ki&startPg=0&Increment=50&submit=Search

> <PubChem CID>
24987532

> <PubChem SID>
220230609

$$$$

  Mrv2115 07222212352D          

 27 29  0  0  0  0            999 V2000
    1.4289   -4.9500    0.0000 O   0  0  0  0  0  0  0  0  0  0  0  0
    2.1434   -5.3625    0.0000 C   0  0  0  0  0  0  0  0  0  0  0  0
    2.8579   -4.9500    0.0000 O   0  0  0  0  0  0  0  0  0  0  0  0
    2.1434   -6.1875    0.0000 C   0  0  0  0  0  0  0  0  0  0  0  0
    2.8109   -6.6724    0.0000 C   0  0  0  0  0  0  0  0  0  0  0  0
    3.5955   -6.4175    0.0000 C   0  0  0  0  0  0  0  0  0  0  0  0
    4.2086   -6.9695    0.0000 O   0  0  0  0  0  0  0  0  0  0  0  0
    3.7670   -5.6105    0.0000 N   0  0  0  0  0  0  0  0  0  0  0  0
    4.5516   -5.3556    0.0000 C   0  0  0  0  0  0  0  0  0  0  0  0
    4.7231   -4.5486    0.0000 C   0  0  0  0  0  0  0  0  0  0  0  0
    5.5078   -4.2937    0.0000 C   0  0  0  0  0  0  0  0  0  0  0  0
    5.6793   -3.4867    0.0000 Br  0  0  0  0  0  0  0  0  0  0  0  0
    6.1209   -4.8457    0.0000 C   0  0  0  0  0  0  0  0  0  0  0  0
    6.9055   -4.5908    0.0000 O   0  0  0  0  0  0  0  0  0  0  0  0
    7.0770   -3.7838    0.0000 C   0  0  0  0  0  0  0  0  0  0  0  0
    7.8616   -3.5288    0.0000 C   0  0  0  0  0  0  0  0  0  0  0  0
    8.0332   -2.7219    0.0000 C   0  0  0  0  0  0  0  0  0  0  0  0
    8.8178   -2.4669    0.0000 C   0  0  0  0  0  0  0  0  0  0  0  0
    9.4309   -3.0190    0.0000 C   0  0  0  0  0  0  0  0  0  0  0  0
    9.2594   -3.8259    0.0000 C   0  0  0  0  0  0  0  0  0  0  0  0
    8.4747   -4.0809    0.0000 C   0  0  0  0  0  0  0  0  0  0  0  0
    5.9493   -5.6527    0.0000 C   0  0  0  0  0  0  0  0  0  0  0  0
    6.5624   -6.2047    0.0000 Br  0  0  0  0  0  0  0  0  0  0  0  0
    5.1647   -5.9076    0.0000 C   0  0  0  0  0  0  0  0  0  0  0  0
    2.5559   -7.4570    0.0000 C   0  0  0  0  0  0  0  0  0  0  0  0
    1.7309   -7.4570    0.0000 C   0  0  0  0  0  0  0  0  0  0  0  0
    1.4760   -6.6724    0.0000 C   0  0  0  0  0  0  0  0  0  0  0  0
  1  2  2  0  0  0  0
  2  3  1  0  0  0  0
  2  4  1  0  0  0  0
  4  5  2  0  0  0  0
  5  6  1  0  0  0  0
  6  7  2  0  0  0  0
  6  8  1  0  0  0  0
  8  9  1  0  0  0  0
  9 10  4  0  0  0  0
 10 11  4  0  0  0  0
 11 12  1  0  0  0  0
 11 13  4  0  0  0  0
 13 14  1  0  0  0  0
 14 15  1  0  0  0  0
 15 16  1  0  0  0  0
 16 17  4  0  0  0  0
 17 18  4  0  0  0  0
 18 19  4  0  0  0  0
 19 20  4  0  0  0  0
 20 21  4  0  0  0  0
 16 21  4  0  0  0  0
 13 22  4  0  0  0  0
 22 23  1  0  0  0  0
 22 24  4  0  0  0  0
  9 24  4  0  0  0  0
  5 25  1  0  0  0  0
 25 26  1  0  0  0  0
 26 27  1  0  0  0  0
  4 27  1  0  0  0  0
M  END
> <IC50(uM)>
0.127

> <Outcome>
1.0

> <BindingDB ID>
50319903

> <BindingDB MonomerID>
50173161

> <BindingDB Ligand Name>
2-(4-Benzyloxy-3,5-dibromo-phenylcarbamoyl)-cyclopent-1-enecarboxylic acid::CHEMBL197553

> <Curation/DataSource>
ChEMBL

> <Article DOI>
10.1016/j.bmcl.2005.07.053

> <PMID>
16143532

> <Patent Number>
?

> <Authors>
Leban, J; Kralik, M; Mies, J; Gassen, M; Tentschert, K; Baumgartner, R

> <Link to Ligand in BindingDB>
http://www.bindingdb.org/bind/chemsearch/marvin/MolStructure.jsp?monomerid=50173161

> <Link to Ligand-Target Pair in BindingDB>
http://www.bindingdb.org/jsp/dbsearch/PrimarySearch_ki.jsp?energyterm=kJ/mole&tag=r21&monomerid=50173161&enzyme=Dihydroorotate+dehydrogenase&column=ki&startPg=0&Increment=50&submit=Search

> <PubChem CID>
21084801

> <PubChem SID>
104059132

$$$$

  Mrv2115 07222212352D          

 25 28  0  0  0  0            999 V2000
    2.1434   -2.8875    0.0000 O   0  0  0  0  0  0  0  0  0  0  0  0
    1.4289   -2.4750    0.0000 C   0  0  0  0  0  0  0  0  0  0  0  0
    0.7145   -2.8875    0.0000 O   0  0  0  0  0  0  0  0  0  0  0  0
    1.4289   -1.6500    0.0000 C   0  0  0  0  0  0  0  0  0  0  0  0
    0.7145   -1.2375    0.0000 C   0  0  0  0  0  0  0  0  0  0  0  0
    0.7145   -0.4125    0.0000 C   0  0  0  0  0  0  0  0  0  0  0  0
    0.0000    0.0000    0.0000 C   0  0  0  0  0  0  0  0  0  0  0  0
   -0.7145   -0.4125    0.0000 C   0  0  0  0  0  0  0  0  0  0  0  0
   -1.4289    0.0000    0.0000 C   0  0  0  0  0  0  0  0  0  0  0  0
   -1.4289    0.8250    0.0000 C   0  0  0  0  0  0  0  0  0  0  0  0
   -2.1434    1.2375    0.0000 N   0  0  0  0  0  0  0  0  0  0  0  0
   -2.8579    0.8250    0.0000 C   0  0  0  0  0  0  0  0  0  0  0  0
   -3.5724    1.2375    0.0000 C   0  0  0  0  0  0  0  0  0  0  0  0
   -3.5724    2.0625    0.0000 C   0  0  0  0  0  0  0  0  0  0  0  0
   -2.8579    2.4750    0.0000 C   0  0  0  0  0  0  0  0  0  0  0  0
   -2.1434    2.0625    0.0000 C   0  0  0  0  0  0  0  0  0  0  0  0
   -0.7145    1.2375    0.0000 C   0  0  0  0  0  0  0  0  0  0  0  0
    0.0000    0.8250    0.0000 C   0  0  0  0  0  0  0  0  0  0  0  0
    1.4289    0.0000    0.0000 N   0  0  0  0  0  0  0  0  0  0  0  0
    2.1434   -0.4125    0.0000 C   0  0  0  0  0  0  0  0  0  0  0  0
    2.8579    0.0000    0.0000 C   0  0  0  0  0  0  0  0  0  0  0  0
    3.5724   -0.4125    0.0000 C   0  0  0  0  0  0  0  0  0  0  0  0
    3.5724   -1.2375    0.0000 C   0  0  0  0  0  0  0  0  0  0  0  0
    2.8579   -1.6500    0.0000 C   0  0  0  0  0  0  0  0  0  0  0  0
    2.1434   -1.2375    0.0000 C   0  0  0  0  0  0  0  0  0  0  0  0
  1  2  2  0  0  0  0
  2  3  1  0  0  0  0
  2  4  1  0  0  0  0
  4  5  4  0  0  0  0
  5  6  4  0  0  0  0
  6  7  1  0  0  0  0
  7  8  4  0  0  0  0
  8  9  4  0  0  0  0
  9 10  4  0  0  0  0
 10 11  1  0  0  0  0
 11 12  1  0  0  0  0
 12 13  1  0  0  0  0
 13 14  1  0  0  0  0
 14 15  1  0  0  0  0
 15 16  1  0  0  0  0
 11 16  1  0  0  0  0
 10 17  4  0  0  0  0
 17 18  4  0  0  0  0
  7 18  4  0  0  0  0
  6 19  4  0  0  0  0
 19 20  4  0  0  0  0
 20 21  4  0  0  0  0
 21 22  4  0  0  0  0
 22 23  4  0  0  0  0
 23 24  4  0  0  0  0
 24 25  4  0  0  0  0
  4 25  4  0  0  0  0
 20 25  4  0  0  0  0
M  END
> <IC50(uM)>
8.07

> <Outcome>
0.0

> <BindingDB ID>
51126164

> <BindingDB MonomerID>
50461851

> <BindingDB Ligand Name>
CHEMBL4226260

> <Curation/DataSource>
ChEMBL

> <Article DOI>
10.1021/acs.jmedchem.7b01862

> <PMID>
29727569

> <Patent Number>
?

> <Authors>
Madak, JT; Cuthbertson, CR; Miyata, Y; Tamura, S; Petrunak, EM; Stuckey, JA; Han, Y; He, M; Sun, D; Showalter, HD; Neamati, N

> <Link to Ligand in BindingDB>
http://www.bindingdb.org/bind/chemsearch/marvin/MolStructure.jsp?monomerid=50461851

> <Link to Ligand-Target Pair in BindingDB>
http://www.bindingdb.org/jsp/dbsearch/PrimarySearch_ki.jsp?energyterm=kJ/mole&tag=r21&monomerid=50461851&enzyme=Dihydroorotate+dehydrogenase&column=ki&startPg=0&Increment=50&submit=Search

> <PubChem CID>
145970373

> <PubChem SID>
433929116

$$$$

  Mrv2115 07222212352D          

 33 36  0  0  0  0            999 V2000
   -3.1034    2.1599    0.0000 C   0  0  0  0  0  0  0  0  0  0  0  0
   -2.6909    1.4455    0.0000 C   0  0  0  0  0  0  0  0  0  0  0  0
   -3.1034    0.7310    0.0000 O   0  0  0  0  0  0  0  0  0  0  0  0
   -2.6909    0.0165    0.0000 C   0  0  0  0  0  0  0  0  0  0  0  0
   -1.8659    0.0165    0.0000 C   0  0  0  0  0  0  0  0  0  0  0  0
   -1.4534   -0.6979    0.0000 C   0  0  0  0  0  0  0  0  0  0  0  0
   -0.6284   -0.6979    0.0000 N   0  0  0  0  0  0  0  0  0  0  0  0
   -0.1435   -1.3654    0.0000 N   0  0  0  0  0  0  0  0  0  0  0  0
    0.6411   -1.1104    0.0000 C   0  0  0  0  0  0  0  0  0  0  0  0
    0.6411   -0.2854    0.0000 N   0  0  0  0  0  0  0  0  0  0  0  0
   -0.1435   -0.0305    0.0000 C   0  0  0  0  0  0  0  0  0  0  0  0
   -0.3984    0.7541    0.0000 O   0  0  0  0  0  0  0  0  0  0  0  0
    1.3556    0.1271    0.0000 C   0  0  0  0  0  0  0  0  0  0  0  0
    2.0701   -0.2854    0.0000 C   0  0  0  0  0  0  0  0  0  0  0  0
    2.0701   -1.1104    0.0000 C   0  0  0  0  0  0  0  0  0  0  0  0
    1.3556   -1.5229    0.0000 C   0  0  0  0  0  0  0  0  0  0  0  0
   -1.8659   -1.4124    0.0000 C   0  0  0  0  0  0  0  0  0  0  0  0
   -1.4534   -2.1269    0.0000 F   0  0  0  0  0  0  0  0  0  0  0  0
   -2.6909   -1.4124    0.0000 C   0  0  0  0  0  0  0  0  0  0  0  0
   -3.1034   -0.6979    0.0000 C   0  0  0  0  0  0  0  0  0  0  0  0
   -3.9284   -0.6979    0.0000 C   0  0  0  0  0  0  0  0  0  0  0  0
   -4.3409    0.0165    0.0000 O   0  0  0  0  0  0  0  0  0  0  0  0
   -4.3409   -1.4124    0.0000 N   0  0  0  0  0  0  0  0  0  0  0  0
   -5.1659   -1.4124    0.0000 C   0  0  0  0  0  0  0  0  0  0  0  0
   -5.5784   -2.1269    0.0000 C   0  0  0  0  0  0  0  0  0  0  0  0
   -6.4034   -2.1269    0.0000 C   0  0  0  0  0  0  0  0  0  0  0  0
   -6.8159   -1.4124    0.0000 C   0  0  0  0  0  0  0  0  0  0  0  0
   -6.4034   -0.6979    0.0000 C   0  0  0  0  0  0  0  0  0  0  0  0
   -5.5784   -0.6979    0.0000 C   0  0  0  0  0  0  0  0  0  0  0  0
   -1.8659    1.4455    0.0000 C   0  0  0  0  0  0  0  0  0  0  0  0
   -1.8659    0.6205    0.0000 F   0  0  0  0  0  0  0  0  0  0  0  0
   -1.8659    2.2705    0.0000 F   0  0  0  0  0  0  0  0  0  0  0  0
   -1.0409    1.4455    0.0000 F   0  0  0  0  0  0  0  0  0  0  0  0
  1  2  1  0  0  0  0
  2  3  1  0  0  0  0
  3  4  1  0  0  0  0
  4  5  4  0  0  0  0
  5  6  4  0  0  0  0
  6  7  1  0  0  0  0
  7  8  4  0  0  0  0
  8  9  4  0  0  0  0
  9 10  4  0  0  0  0
 10 11  4  0  0  0  0
  7 11  4  0  0  0  0
 11 12  2  0  0  0  0
 10 13  1  0  0  0  0
 13 14  1  0  0  0  0
 14 15  1  0  0  0  0
 15 16  1  0  0  0  0
  9 16  1  0  0  0  0
  6 17  4  0  0  0  0
 17 18  1  0  0  0  0
 17 19  4  0  0  0  0
 19 20  4  0  0  0  0
  4 20  4  0  0  0  0
 20 21  1  0  0  0  0
 21 22  2  0  0  0  0
 21 23  1  0  0  0  0
 23 24  1  0  0  0  0
 24 25  4  0  0  0  0
 25 26  4  0  0  0  0
 26 27  4  0  0  0  0
 27 28  4  0  0  0  0
 28 29  4  0  0  0  0
 24 29  4  0  0  0  0
  2 30  1  0  0  0  0
 30 31  1  0  0  0  0
 30 32  1  0  0  0  0
 30 33  1  0  0  0  0
M  END
> <IC50(uM)>
0.12

> <Outcome>
1.0

> <BindingDB ID>
1020457

> <BindingDB MonomerID>
490405

> <BindingDB Ligand Name>
5-fluoro-4-(3-oxo-5,6,7,8-tetrahydro[1,2,4]triazolo[4,3-a]pyridin-2(3H)-yl)-N-phenyl-2-{[(2S)-1,1,1-trifluoropropan-2-yl]oxy}benzamide::US10968216, Example 73

> <Curation/DataSource>
US Patent

> <Article DOI>
?

> <PMID>
?

> <Patent Number>
US10968216

> <Authors>
Gradl, SN; Nguyen, D; Eis, K; Gunther, J; Stellfeld, T; Janzer, A; Christian, S; Mueller, T; Sheikh, SE; Zhou, HJ; Zhao, C; Sykes, DB; Ferrara, SJ; Liu, K; Herbert, SA; Merz, C; Niehues, M; Nising, CF; Schafer, M; Zimmermann, K; Knablein, J; Thede, K; Faupel, T

> <Link to Ligand in BindingDB>
http://www.bindingdb.org/bind/chemsearch/marvin/MolStructure.jsp?monomerid=490405

> <Link to Ligand-Target Pair in BindingDB>
http://www.bindingdb.org/jsp/dbsearch/PrimarySearch_ki.jsp?energyterm=kJ/mole&tag=r21&monomerid=490405&enzyme=Dihydroorotate+dehydrogenase&column=ki&startPg=0&Increment=50&submit=Search

> <PubChem CID>
142335853

> <PubChem SID>
447117132

$$$$

  Mrv2115 07222212352D          

 32 33  0  0  0  0            999 V2000
   -3.4782    6.7819    0.0000 C   0  0  0  0  0  0  0  0  0  0  0  0
   -2.6577    6.6957    0.0000 C   0  0  0  0  0  0  0  0  0  0  0  0
   -2.3221    5.9420    0.0000 C   0  0  0  0  0  0  0  0  0  0  0  0
   -1.5152    5.7705    0.0000 N   0  0  0  0  0  0  0  0  0  0  0  0
   -1.4289    4.9500    0.0000 N   0  0  0  0  0  0  0  0  0  0  0  0
   -0.7145    4.5375    0.0000 C   0  0  0  0  0  0  0  0  0  0  0  0
    0.0000    4.9500    0.0000 C   0  0  0  0  0  0  0  0  0  0  0  0
    0.7145    4.5375    0.0000 C   0  0  0  0  0  0  0  0  0  0  0  0
    1.4289    4.9500    0.0000 O   0  0  0  0  0  0  0  0  0  0  0  0
    1.4289    5.7750    0.0000 C   0  0  0  0  0  0  0  0  0  0  0  0
    0.7145    6.1875    0.0000 C   0  0  0  0  0  0  0  0  0  0  0  0
    2.1434    6.1875    0.0000 C   0  0  0  0  0  0  0  0  0  0  0  0
    2.8579    5.7750    0.0000 C   0  0  0  0  0  0  0  0  0  0  0  0
    3.5724    6.1875    0.0000 C   0  0  0  0  0  0  0  0  0  0  0  0
    2.1434    7.0125    0.0000 C   0  0  0  0  0  0  0  0  0  0  0  0
    2.8579    7.4250    0.0000 C   0  0  0  0  0  0  0  0  0  0  0  0
    0.7145    3.7125    0.0000 C   0  0  0  0  0  0  0  0  0  0  0  0
    1.4289    3.3000    0.0000 C   0  0  0  0  0  0  0  0  0  0  0  0
    2.1434    3.7125    0.0000 O   0  0  0  0  0  0  0  0  0  0  0  0
    1.4289    2.4750    0.0000 N   0  0  0  0  0  0  0  0  0  0  0  0
    2.1434    2.0625    0.0000 C   0  0  0  0  0  0  0  0  0  0  0  0
    2.1434    1.2375    0.0000 C   0  0  0  0  0  0  0  0  0  0  0  0
    2.8579    0.8250    0.0000 C   0  0  0  0  0  0  0  0  0  0  0  0
    2.8579    2.4750    0.0000 C   0  0  0  0  0  0  0  0  0  0  0  0
    3.5724    2.0625    0.0000 C   0  0  0  0  0  0  0  0  0  0  0  0
    0.0000    3.3000    0.0000 C   0  0  0  0  0  0  0  0  0  0  0  0
   -0.7145    3.7125    0.0000 C   0  0  0  0  0  0  0  0  0  0  0  0
   -1.4289    3.3000    0.0000 F   0  0  0  0  0  0  0  0  0  0  0  0
   -2.1826    4.6144    0.0000 C   0  0  0  0  0  0  0  0  0  0  0  0
   -2.3541    3.8075    0.0000 O   0  0  0  0  0  0  0  0  0  0  0  0
   -2.7346    5.2275    0.0000 N   0  0  0  0  0  0  0  0  0  0  0  0
   -3.5551    5.1413    0.0000 C   0  0  0  0  0  0  0  0  0  0  0  0
  1  2  1  0  0  0  0
  2  3  1  0  0  0  0
  3  4  4  0  0  0  0
  4  5  4  0  0  0  0
  5  6  1  0  0  0  0
  6  7  4  0  0  0  0
  7  8  4  0  0  0  0
  8  9  1  0  0  0  0
  9 10  1  0  0  0  0
 10 11  1  0  0  0  0
 10 12  1  0  0  0  0
 12 13  1  0  0  0  0
 13 14  1  0  0  0  0
 12 15  1  0  0  0  0
 15 16  1  0  0  0  0
  8 17  4  0  0  0  0
 17 18  1  0  0  0  0
 18 19  2  0  0  0  0
 18 20  1  0  0  0  0
 20 21  1  0  0  0  0
 21 22  1  0  0  0  0
 22 23  1  0  0  0  0
 21 24  1  0  0  0  0
 24 25  1  0  0  0  0
 17 26  4  0  0  0  0
 26 27  4  0  0  0  0
  6 27  4  0  0  0  0
 27 28  1  0  0  0  0
  5 29  4  0  0  0  0
 29 30  2  0  0  0  0
 29 31  4  0  0  0  0
  3 31  4  0  0  0  0
 31 32  1  0  0  0  0
M  END
> <IC50(uM)>
0.398

> <Outcome>
1.0

> <BindingDB ID>
972632; 1098786; 972631; 1098785

> <BindingDB MonomerID>
470512

> <BindingDB Ligand Name>
4-(3-ethyl-4-methyl-5-oxo-4,5-dihydro-1H-1,2,4-triazol-1-yl)-2-[(3-ethylpentan-2-yl)oxy]-5-fluoro-N-(pentan-3-yl)benzamide, Mixture of Stereoisomers::US10815215, Example 170; 4-(3-ethyl-4-methyl-5-oxo-4,5-dihydro-1H-1,2,4-triazol-1-yl)-2-[(3-ethylpentan-2-yl)oxy]-5-fluoro-N-(pentan-3-yl)benzamide, Mixture of Stereoisomers::US10815215, Example 170::US11130745, Example 170

> <Curation/DataSource>
US Patent

> <Article DOI>
?

> <PMID>
?

> <Patent Number>
US10815215; US11130745

> <Authors>
Gradl, SN; Nguyen, D; Eis, K; Gunther, J; Stellfeld, T; Janzer, A; Christian, S; Muller, T; Sheikh, SE; Zhou, HJ; Zhao, C; Sykes, DB; Ferrara, SJ; Liu, K; Krober, M; Merz, C; Niehues, M; Schafer, M; Zimmermann, K; Nising, CF; Gradl, SN; Nguyen, D; Eis, K; Gunther, J; Stellfeld, T; Janzer, A; Christian, S; Muller, T; Sheikh, SE; Sykes, DB; Ferrara, SJ; Krober, M; Merz, C; Niehues, M; Schafer, M; Zimmermann, K; Nising, CF

> <Link to Ligand in BindingDB>
http://www.bindingdb.org/bind/chemsearch/marvin/MolStructure.jsp?monomerid=470512

> <Link to Ligand-Target Pair in BindingDB>
http://www.bindingdb.org/jsp/dbsearch/PrimarySearch_ki.jsp?energyterm=kJ/mole&tag=r21&monomerid=470512&enzyme=Dihydroorotate+dehydrogenase&column=ki&startPg=0&Increment=50&submit=Search

> <PubChem CID>
134470187

> <PubChem SID>
441609689

$$$$

  Mrv2115 07222212352D          

 24 26  0  0  0  0            999 V2000
    3.5902    2.8912    0.0000 C   0  0  0  0  0  0  0  0  0  0  0  0
    3.7738    2.0868    0.0000 C   0  0  0  0  0  0  0  0  0  0  0  0
    3.1690    1.5257    0.0000 O   0  0  0  0  0  0  0  0  0  0  0  0
    3.3526    0.7214    0.0000 C   0  0  0  0  0  0  0  0  0  0  0  0
    4.1569    0.5378    0.0000 C   0  0  0  0  0  0  0  0  0  0  0  0
    4.5149   -0.2055    0.0000 C   0  0  0  0  0  0  0  0  0  0  0  0
    4.1569   -0.9488    0.0000 C   0  0  0  0  0  0  0  0  0  0  0  0
    3.3526   -1.1324    0.0000 C   0  0  0  0  0  0  0  0  0  0  0  0
    3.1690   -1.9367    0.0000 O   0  0  0  0  0  0  0  0  0  0  0  0
    2.7076   -0.6180    0.0000 C   0  0  0  0  0  0  0  0  0  0  0  0
    1.9230   -0.8729    0.0000 C   0  0  0  0  0  0  0  0  0  0  0  0
    1.6680   -1.6576    0.0000 C   0  0  0  0  0  0  0  0  0  0  0  0
    1.4380   -0.2055    0.0000 N   0  0  0  0  0  0  0  0  0  0  0  0
    0.6130   -0.2055    0.0000 C   0  0  0  0  0  0  0  0  0  0  0  0
    0.2005    0.5090    0.0000 C   0  0  0  0  0  0  0  0  0  0  0  0
   -0.6245    0.5090    0.0000 C   0  0  0  0  0  0  0  0  0  0  0  0
   -1.0370    1.2235    0.0000 C   0  0  0  0  0  0  0  0  0  0  0  0
   -0.6245    1.9379    0.0000 C   0  0  0  0  0  0  0  0  0  0  0  0
   -1.0370    2.6524    0.0000 Cl  0  0  0  0  0  0  0  0  0  0  0  0
    0.2005    1.9379    0.0000 C   0  0  0  0  0  0  0  0  0  0  0  0
    0.6130    1.2235    0.0000 C   0  0  0  0  0  0  0  0  0  0  0  0
    1.9230    0.4619    0.0000 C   0  0  0  0  0  0  0  0  0  0  0  0
    1.6680    1.2466    0.0000 C   0  0  0  0  0  0  0  0  0  0  0  0
    2.7076    0.2070    0.0000 C   0  0  0  0  0  0  0  0  0  0  0  0
  1  2  1  0  0  0  0
  2  3  1  0  0  0  0
  3  4  1  0  0  0  0
  4  5  4  0  0  0  0
  5  6  4  0  0  0  0
  6  7  4  0  0  0  0
  7  8  4  0  0  0  0
  8  9  2  0  0  0  0
  8 10  4  0  0  0  0
 10 11  4  0  0  0  0
 11 12  1  0  0  0  0
 11 13  4  0  0  0  0
 13 14  1  0  0  0  0
 14 15  1  0  0  0  0
 15 16  4  0  0  0  0
 16 17  4  0  0  0  0
 17 18  4  0  0  0  0
 18 19  1  0  0  0  0
 18 20  4  0  0  0  0
 20 21  4  0  0  0  0
 15 21  4  0  0  0  0
 13 22  4  0  0  0  0
 22 23  1  0  0  0  0
 22 24  4  0  0  0  0
  4 24  4  0  0  0  0
 10 24  4  0  0  0  0
M  END
> <IC50(uM)>
30.0

> <Outcome>
0.0

> <BindingDB ID>
404294

> <BindingDB MonomerID>
231629

> <BindingDB Ligand Name>
IDI-6273

> <Curation/DataSource>
Curated from the literature by BindingDB

> <Article DOI>
10.1074/jbc.M114.558353

> <PMID>
24782313

> <Patent Number>
?

> <Authors>
Ross, LS; Gamo, FJ; Lafuente-Monasterio, MJ; Singh, OM; Rowland, P; Wiegand, RC; Wirth, DF

> <Link to Ligand in BindingDB>
http://www.bindingdb.org/bind/chemsearch/marvin/MolStructure.jsp?monomerid=231629

> <Link to Ligand-Target Pair in BindingDB>
http://www.bindingdb.org/jsp/dbsearch/PrimarySearch_ki.jsp?energyterm=kJ/mole&tag=r21&monomerid=231629&enzyme=Dihydroorotate+dehydrogenase&column=ki&startPg=0&Increment=50&submit=Search

> <PubChem CID>
686807

> <PubChem SID>
336950878

$$$$

  Mrv2115 07222212352D          

 19 20  0  0  0  0            999 V2000
    1.4289   -1.6500    0.0000 C   0  0  0  0  0  0  0  0  0  0  0  0
    1.4289   -2.4750    0.0000 C   0  0  0  0  0  0  0  0  0  0  0  0
    2.0964   -2.9599    0.0000 O   0  0  0  0  0  0  0  0  0  0  0  0
    1.8414   -3.7445    0.0000 N   0  0  0  0  0  0  0  0  0  0  0  0
    1.0164   -3.7445    0.0000 C   0  0  0  0  0  0  0  0  0  0  0  0
    0.7615   -2.9599    0.0000 C   0  0  0  0  0  0  0  0  0  0  0  0
   -0.0231   -2.7050    0.0000 C   0  0  0  0  0  0  0  0  0  0  0  0
   -0.1946   -1.8980    0.0000 S   0  0  0  0  0  0  0  0  0  0  0  0
   -0.6362   -3.2570    0.0000 N   0  0  0  0  0  0  0  0  0  0  0  0
   -1.4208   -3.0021    0.0000 C   0  0  0  0  0  0  0  0  0  0  0  0
   -2.0339   -3.5541    0.0000 C   0  0  0  0  0  0  0  0  0  0  0  0
   -2.8186   -3.2992    0.0000 C   0  0  0  0  0  0  0  0  0  0  0  0
   -2.9901   -2.4922    0.0000 C   0  0  0  0  0  0  0  0  0  0  0  0
   -3.7747   -2.2373    0.0000 C   0  0  0  0  0  0  0  0  0  0  0  0
   -4.5593   -1.9823    0.0000 F   0  0  0  0  0  0  0  0  0  0  0  0
   -3.5198   -1.4526    0.0000 F   0  0  0  0  0  0  0  0  0  0  0  0
   -4.0296   -3.0219    0.0000 F   0  0  0  0  0  0  0  0  0  0  0  0
   -2.3770   -1.9402    0.0000 C   0  0  0  0  0  0  0  0  0  0  0  0
   -1.5924   -2.1951    0.0000 C   0  0  0  0  0  0  0  0  0  0  0  0
  1  2  1  0  0  0  0
  2  3  4  0  0  0  0
  3  4  4  0  0  0  0
  4  5  4  0  0  0  0
  5  6  4  0  0  0  0
  2  6  4  0  0  0  0
  6  7  1  0  0  0  0
  7  8  2  0  0  0  0
  7  9  1  0  0  0  0
  9 10  1  0  0  0  0
 10 11  4  0  0  0  0
 11 12  4  0  0  0  0
 12 13  4  0  0  0  0
 13 14  1  0  0  0  0
 14 15  1  0  0  0  0
 14 16  1  0  0  0  0
 14 17  1  0  0  0  0
 13 18  4  0  0  0  0
 18 19  4  0  0  0  0
 10 19  4  0  0  0  0
M  END
> <IC50(uM)>
50.0

> <Outcome>
0.0

> <BindingDB ID>
50123315

> <BindingDB MonomerID>
50071395

> <BindingDB Ligand Name>
5-Methyl-isoxazole-4-carbothioic acid (4-trifluoromethyl-phenyl)-amide::CHEMBL69131

> <Curation/DataSource>
ChEMBL

> <Article DOI>
10.1016/s0960-894x(98)00365-5

> <PMID>
9873513

> <Patent Number>
?

> <Authors>
Albert, R; Knecht, H; Andersen, E; Hungerford, V; Schreier, MH; Papageorgiou, C

> <Link to Ligand in BindingDB>
http://www.bindingdb.org/bind/chemsearch/marvin/MolStructure.jsp?monomerid=50071395

> <Link to Ligand-Target Pair in BindingDB>
http://www.bindingdb.org/jsp/dbsearch/PrimarySearch_ki.jsp?energyterm=kJ/mole&tag=r21&monomerid=50071395&enzyme=Dihydroorotate+dehydrogenase&column=ki&startPg=0&Increment=50&submit=Search

> <PubChem CID>
15858807

> <PubChem SID>
103965149

$$$$

  Mrv2115 07222212352D          

 23 25  0  0  0  0            999 V2000
    2.0367    0.3509    0.0000 N   0  0  0  0  0  0  0  0  0  0  0  0
    2.0367   -0.4741    0.0000 C   0  0  0  0  0  0  0  0  0  0  0  0
    2.0367   -1.2991    0.0000 C   0  0  0  0  0  0  0  0  0  0  0  0
    2.7041   -1.7840    0.0000 C   0  0  0  0  0  0  0  0  0  0  0  0
    3.4888   -1.5291    0.0000 C   0  0  0  0  0  0  0  0  0  0  0  0
    3.7437   -0.7445    0.0000 C   0  0  0  0  0  0  0  0  0  0  0  0
    4.5687   -0.7445    0.0000 C   0  0  0  0  0  0  0  0  0  0  0  0
    4.8236   -1.5291    0.0000 C   0  0  0  0  0  0  0  0  0  0  0  0
    4.1562   -2.0140    0.0000 O   0  0  0  0  0  0  0  0  0  0  0  0
    2.4492   -2.5687    0.0000 N   0  0  0  0  0  0  0  0  0  0  0  0
    1.6242   -2.5687    0.0000 N   0  0  0  0  0  0  0  0  0  0  0  0
    1.3693   -1.7840    0.0000 C   0  0  0  0  0  0  0  0  0  0  0  0
    0.5846   -1.5291    0.0000 N   0  0  0  0  0  0  0  0  0  0  0  0
    0.4131   -0.7221    0.0000 C   0  0  0  0  0  0  0  0  0  0  0  0
   -0.3715   -0.4672    0.0000 C   0  0  0  0  0  0  0  0  0  0  0  0
   -0.5430    0.3398    0.0000 C   0  0  0  0  0  0  0  0  0  0  0  0
    0.0701    0.8918    0.0000 C   0  0  0  0  0  0  0  0  0  0  0  0
   -0.1015    1.6988    0.0000 C   0  0  0  0  0  0  0  0  0  0  0  0
   -0.2730    2.5058    0.0000 F   0  0  0  0  0  0  0  0  0  0  0  0
    0.7055    1.8703    0.0000 F   0  0  0  0  0  0  0  0  0  0  0  0
   -0.9084    1.5273    0.0000 F   0  0  0  0  0  0  0  0  0  0  0  0
    0.8547    0.6369    0.0000 C   0  0  0  0  0  0  0  0  0  0  0  0
    1.0262   -0.1701    0.0000 C   0  0  0  0  0  0  0  0  0  0  0  0
  1  2  3  0  0  0  0
  2  3  1  0  0  0  0
  3  4  4  0  0  0  0
  4  5  1  0  0  0  0
  5  6  4  0  0  0  0
  6  7  4  0  0  0  0
  7  8  4  0  0  0  0
  8  9  4  0  0  0  0
  5  9  4  0  0  0  0
  4 10  4  0  0  0  0
 10 11  4  0  0  0  0
 11 12  4  0  0  0  0
  3 12  4  0  0  0  0
 12 13  1  0  0  0  0
 13 14  1  0  0  0  0
 14 15  4  0  0  0  0
 15 16  4  0  0  0  0
 16 17  4  0  0  0  0
 17 18  1  0  0  0  0
 18 19  1  0  0  0  0
 18 20  1  0  0  0  0
 18 21  1  0  0  0  0
 17 22  4  0  0  0  0
 22 23  4  0  0  0  0
 14 23  4  0  0  0  0
M  STY  1   1 DAT
M  SAL   1  1  11
M  SDT   1 MRV_IMPLICIT_H                                        
M  SDD   1     0.5304   -0.4125    DR    ALL  0       0  
M  SED   1 IMPL_H1
M  END
> <IC50(uM)>
50.0

> <Outcome>
0.0

> <BindingDB ID>
50786787

> <BindingDB MonomerID>
50066610

> <BindingDB Ligand Name>
5-Furan-2-yl-3-(4-trifluoromethyl-phenylamino)-1H-pyrazole-4-carbonitrile::CHEMBL118727

> <Curation/DataSource>
ChEMBL

> <Article DOI>
10.1021/jm981028c

> <PMID>
9719606

> <Patent Number>
?

> <Authors>
Papageorgiou, C; Albert, R; Floersheim, P; Lemaire, M; Bitch, F; Weber, HP; Andersen, E; Hungerford, V; Schreier, MH

> <Link to Ligand in BindingDB>
http://www.bindingdb.org/bind/chemsearch/marvin/MolStructure.jsp?monomerid=50066610

> <Link to Ligand-Target Pair in BindingDB>
http://www.bindingdb.org/jsp/dbsearch/PrimarySearch_ki.jsp?energyterm=kJ/mole&tag=r21&monomerid=50066610&enzyme=Dihydroorotate+dehydrogenase&column=ki&startPg=0&Increment=50&submit=Search

> <PubChem CID>
10829333

> <PubChem SID>
103961230

$$$$

  Mrv2115 07222212352D          

 37 41  0  0  0  0            999 V2000
   -7.6409   -1.4124    0.0000 C   0  0  0  0  0  0  0  0  0  0  0  0
   -6.8159   -1.4124    0.0000 C   0  0  0  0  0  0  0  0  0  0  0  0
   -6.4034   -0.6979    0.0000 N   0  0  0  0  0  0  0  0  0  0  0  0
   -5.5784   -0.6979    0.0000 C   0  0  0  0  0  0  0  0  0  0  0  0
   -5.1659   -1.4124    0.0000 C   0  0  0  0  0  0  0  0  0  0  0  0
   -4.3409   -1.4124    0.0000 N   0  0  0  0  0  0  0  0  0  0  0  0
   -3.9284   -0.6979    0.0000 C   0  0  0  0  0  0  0  0  0  0  0  0
   -4.3409    0.0165    0.0000 O   0  0  0  0  0  0  0  0  0  0  0  0
   -3.1034   -0.6979    0.0000 C   0  0  0  0  0  0  0  0  0  0  0  0
   -2.6909    0.0165    0.0000 C   0  0  0  0  0  0  0  0  0  0  0  0
   -1.8659    0.0165    0.0000 C   0  0  0  0  0  0  0  0  0  0  0  0
   -1.4534    0.7310    0.0000 F   0  0  0  0  0  0  0  0  0  0  0  0
   -1.4534   -0.6979    0.0000 C   0  0  0  0  0  0  0  0  0  0  0  0
   -0.6284   -0.6979    0.0000 N   0  0  0  0  0  0  0  0  0  0  0  0
   -0.1435   -1.3654    0.0000 N   0  0  0  0  0  0  0  0  0  0  0  0
    0.6411   -1.1104    0.0000 C   0  0  0  0  0  0  0  0  0  0  0  0
    0.6411   -0.2854    0.0000 N   0  0  0  0  0  0  0  0  0  0  0  0
   -0.1435   -0.0305    0.0000 C   0  0  0  0  0  0  0  0  0  0  0  0
   -0.3984    0.7541    0.0000 O   0  0  0  0  0  0  0  0  0  0  0  0
    1.3556    0.1271    0.0000 C   0  0  0  0  0  0  0  0  0  0  0  0
    2.0701   -0.2854    0.0000 C   0  0  0  0  0  0  0  0  0  0  0  0
    2.0701   -1.1104    0.0000 C   0  0  0  0  0  0  0  0  0  0  0  0
    1.3556   -1.5229    0.0000 C   0  0  0  0  0  0  0  0  0  0  0  0
   -1.8659   -1.4124    0.0000 C   0  0  0  0  0  0  0  0  0  0  0  0
   -2.6909   -1.4124    0.0000 C   0  0  0  0  0  0  0  0  0  0  0  0
   -3.1034   -2.1269    0.0000 O   0  0  0  0  0  0  0  0  0  0  0  0
   -2.6909   -2.8414    0.0000 C   0  0  0  0  0  0  0  0  0  0  0  0
   -1.8659   -2.8414    0.0000 C   0  0  0  0  0  0  0  0  0  0  0  0
   -3.1034   -3.5558    0.0000 C   0  0  0  0  0  0  0  0  0  0  0  0
   -2.6909   -4.2703    0.0000 C   0  0  0  0  0  0  0  0  0  0  0  0
   -3.1034   -4.9848    0.0000 C   0  0  0  0  0  0  0  0  0  0  0  0
   -3.9284   -4.9848    0.0000 C   0  0  0  0  0  0  0  0  0  0  0  0
   -4.3409   -4.2703    0.0000 C   0  0  0  0  0  0  0  0  0  0  0  0
   -3.9284   -3.5558    0.0000 C   0  0  0  0  0  0  0  0  0  0  0  0
   -5.5784   -2.1269    0.0000 C   0  0  0  0  0  0  0  0  0  0  0  0
   -5.1659   -2.8414    0.0000 C   0  0  0  0  0  0  0  0  0  0  0  0
   -6.4034   -2.1269    0.0000 N   0  0  0  0  0  0  0  0  0  0  0  0
  1  2  1  0  0  0  0
  2  3  4  0  0  0  0
  3  4  4  0  0  0  0
  4  5  4  0  0  0  0
  5  6  1  0  0  0  0
  6  7  1  0  0  0  0
  7  8  2  0  0  0  0
  7  9  1  0  0  0  0
  9 10  4  0  0  0  0
 10 11  4  0  0  0  0
 11 12  1  0  0  0  0
 11 13  4  0  0  0  0
 13 14  1  0  0  0  0
 14 15  4  0  0  0  0
 15 16  4  0  0  0  0
 16 17  4  0  0  0  0
 17 18  4  0  0  0  0
 14 18  4  0  0  0  0
 18 19  2  0  0  0  0
 17 20  1  0  0  0  0
 20 21  1  0  0  0  0
 21 22  1  0  0  0  0
 22 23  1  0  0  0  0
 16 23  1  0  0  0  0
 13 24  4  0  0  0  0
 24 25  4  0  0  0  0
  9 25  4  0  0  0  0
 25 26  1  0  0  0  0
 26 27  1  0  0  0  0
 27 28  1  0  0  0  0
 27 29  1  0  0  0  0
 29 30  1  0  0  0  0
 30 31  1  0  0  0  0
 31 32  1  0  0  0  0
 32 33  1  0  0  0  0
 33 34  1  0  0  0  0
 29 34  1  0  0  0  0
  5 35  4  0  0  0  0
 35 36  1  0  0  0  0
 35 37  4  0  0  0  0
  2 37  4  0  0  0  0
M  END
> <IC50(uM)>
0.2

> <Outcome>
1.0

> <BindingDB ID>
1020516

> <BindingDB MonomerID>
490464

> <BindingDB Ligand Name>
2-[(1S)-1-cyclohexylethoxy]-N-(2,4-dimethylpyrimidin-5-yl)-5-fluoro-4-(3-oxo-5,6,7,8-tetrahydro[1,2,4]triazolo[4,3-a]pyridin-2(3H)-yl)benzamide::US10968216, Example 132

> <Curation/DataSource>
US Patent

> <Article DOI>
?

> <PMID>
?

> <Patent Number>
US10968216

> <Authors>
Gradl, SN; Nguyen, D; Eis, K; Gunther, J; Stellfeld, T; Janzer, A; Christian, S; Mueller, T; Sheikh, SE; Zhou, HJ; Zhao, C; Sykes, DB; Ferrara, SJ; Liu, K; Herbert, SA; Merz, C; Niehues, M; Nising, CF; Schafer, M; Zimmermann, K; Knablein, J; Thede, K; Faupel, T

> <Link to Ligand in BindingDB>
http://www.bindingdb.org/bind/chemsearch/marvin/MolStructure.jsp?monomerid=490464

> <Link to Ligand-Target Pair in BindingDB>
http://www.bindingdb.org/jsp/dbsearch/PrimarySearch_ki.jsp?energyterm=kJ/mole&tag=r21&monomerid=490464&enzyme=Dihydroorotate+dehydrogenase&column=ki&startPg=0&Increment=50&submit=Search

> <PubChem CID>
134474325

> <PubChem SID>
447117191

$$$$

  Mrv2115 07222212352D          

 26 28  0  0  0  0            999 V2000
    1.4289   -0.0000    0.0000 C   0  0  0  0  0  0  0  0  0  0  0  0
    0.7145   -0.4125    0.0000 N   0  0  0  0  0  0  0  0  0  0  0  0
    0.0000    0.0000    0.0000 N   0  0  0  0  0  0  0  0  0  0  0  0
   -0.7145   -0.4125    0.0000 C   0  0  0  0  0  0  0  0  0  0  0  0
   -1.4289    0.0000    0.0000 C   0  0  0  0  0  0  0  0  0  0  0  0
   -2.1434   -0.4125    0.0000 C   0  0  0  0  0  0  0  0  0  0  0  0
   -2.8579    0.0000    0.0000 C   0  0  0  0  0  0  0  0  0  0  0  0
   -2.8579    0.8250    0.0000 C   0  0  0  0  0  0  0  0  0  0  0  0
   -3.5724    1.2375    0.0000 F   0  0  0  0  0  0  0  0  0  0  0  0
   -2.1434    1.2375    0.0000 C   0  0  0  0  0  0  0  0  0  0  0  0
   -1.4289    0.8250    0.0000 C   0  0  0  0  0  0  0  0  0  0  0  0
   -0.7145    1.2375    0.0000 C   0  0  0  0  0  0  0  0  0  0  0  0
    0.0000    0.8250    0.0000 O   0  0  0  0  0  0  0  0  0  0  0  0
   -0.7145    2.0625    0.0000 O   0  0  0  0  0  0  0  0  0  0  0  0
    0.7145   -1.2375    0.0000 C   0  0  0  0  0  0  0  0  0  0  0  0
    1.3819   -1.7224    0.0000 N   0  0  0  0  0  0  0  0  0  0  0  0
    1.1270   -2.5070    0.0000 C   0  0  0  0  0  0  0  0  0  0  0  0
    1.6119   -3.1745    0.0000 C   0  0  0  0  0  0  0  0  0  0  0  0
    2.4324   -3.0882    0.0000 C   0  0  0  0  0  0  0  0  0  0  0  0
    2.9173   -3.7557    0.0000 C   0  0  0  0  0  0  0  0  0  0  0  0
    2.5817   -4.5094    0.0000 C   0  0  0  0  0  0  0  0  0  0  0  0
    1.7613   -4.5956    0.0000 C   0  0  0  0  0  0  0  0  0  0  0  0
    1.2763   -3.9282    0.0000 C   0  0  0  0  0  0  0  0  0  0  0  0
    0.4559   -4.0144    0.0000 Cl  0  0  0  0  0  0  0  0  0  0  0  0
    0.3020   -2.5070    0.0000 C   0  0  0  0  0  0  0  0  0  0  0  0
    0.0470   -1.7224    0.0000 S   0  0  0  0  0  0  0  0  0  0  0  0
  1  2  1  0  0  0  0
  2  3  1  0  0  0  0
  3  4  2  0  0  0  0
  4  5  1  0  0  0  0
  5  6  4  0  0  0  0
  6  7  4  0  0  0  0
  7  8  4  0  0  0  0
  8  9  1  0  0  0  0
  8 10  4  0  0  0  0
 10 11  4  0  0  0  0
  5 11  4  0  0  0  0
 11 12  1  0  0  0  0
 12 13  2  0  0  0  0
 12 14  1  0  0  0  0
  2 15  1  0  0  0  0
 15 16  4  0  0  0  0
 16 17  4  0  0  0  0
 17 18  1  0  0  0  0
 18 19  4  0  0  0  0
 19 20  4  0  0  0  0
 20 21  4  0  0  0  0
 21 22  4  0  0  0  0
 22 23  4  0  0  0  0
 18 23  4  0  0  0  0
 23 24  1  0  0  0  0
 17 25  4  0  0  0  0
 25 26  4  0  0  0  0
 15 26  4  0  0  0  0
M  END
> <IC50(uM)>
0.0018

> <Outcome>
1.0

> <BindingDB ID>
1001119

> <BindingDB MonomerID>
482805

> <BindingDB Ligand Name>
US10919869, No.  10

> <Curation/DataSource>
US Patent

> <Article DOI>
?

> <PMID>
?

> <Patent Number>
US10919869

> <Authors>
Li, H; Xu, Y; Wang, R; Zhao, Z; Song, W; Xu, L

> <Link to Ligand in BindingDB>
http://www.bindingdb.org/bind/chemsearch/marvin/MolStructure.jsp?monomerid=482805

> <Link to Ligand-Target Pair in BindingDB>
http://www.bindingdb.org/jsp/dbsearch/PrimarySearch_ki.jsp?energyterm=kJ/mole&tag=r21&monomerid=482805&enzyme=Dihydroorotate+dehydrogenase&column=ki&startPg=0&Increment=50&submit=Search

> <PubChem CID>
132157951

> <PubChem SID>
443551946

$$$$

  Mrv2115 07222212352D          

 23 26  0  0  0  0            999 V2000
    6.0634   -0.7695    0.0000 C   0  0  0  0  0  0  0  0  0  0  0  0
    5.2564   -0.5980    0.0000 O   0  0  0  0  0  0  0  0  0  0  0  0
    4.7044   -1.2111    0.0000 C   0  0  0  0  0  0  0  0  0  0  0  0
    4.9594   -1.9957    0.0000 C   0  0  0  0  0  0  0  0  0  0  0  0
    4.4073   -2.6088    0.0000 C   0  0  0  0  0  0  0  0  0  0  0  0
    3.6004   -2.4373    0.0000 C   0  0  0  0  0  0  0  0  0  0  0  0
    3.3454   -1.6527    0.0000 C   0  0  0  0  0  0  0  0  0  0  0  0
    3.8974   -1.0396    0.0000 C   0  0  0  0  0  0  0  0  0  0  0  0
    3.6425   -0.2549    0.0000 N   0  0  0  0  0  0  0  0  0  0  0  0
    4.1274    0.4125    0.0000 N   0  0  0  0  0  0  0  0  0  0  0  0
    3.6425    1.0799    0.0000 N   0  0  0  0  0  0  0  0  0  0  0  0
    2.8579    0.8250    0.0000 C   0  0  0  0  0  0  0  0  0  0  0  0
    2.8579    0.0000    0.0000 C   0  0  0  0  0  0  0  0  0  0  0  0
    2.1434   -0.4125    0.0000 C   0  0  0  0  0  0  0  0  0  0  0  0
    2.1434   -1.2375    0.0000 O   0  0  0  0  0  0  0  0  0  0  0  0
    1.4289   -0.0000    0.0000 C   0  0  0  0  0  0  0  0  0  0  0  0
    0.7145   -0.4125    0.0000 C   0  0  0  0  0  0  0  0  0  0  0  0
   -0.0000    0.0000    0.0000 C   0  0  0  0  0  0  0  0  0  0  0  0
    0.0000    0.8250    0.0000 C   0  0  0  0  0  0  0  0  0  0  0  0
    0.7145    1.2375    0.0000 C   0  0  0  0  0  0  0  0  0  0  0  0
    1.4289    0.8250    0.0000 C   0  0  0  0  0  0  0  0  0  0  0  0
    2.1434    1.2375    0.0000 C   0  0  0  0  0  0  0  0  0  0  0  0
    2.1434    2.0625    0.0000 O   0  0  0  0  0  0  0  0  0  0  0  0
  1  2  1  0  0  0  0
  2  3  1  0  0  0  0
  3  4  4  0  0  0  0
  4  5  4  0  0  0  0
  5  6  4  0  0  0  0
  6  7  4  0  0  0  0
  7  8  4  0  0  0  0
  3  8  4  0  0  0  0
  8  9  1  0  0  0  0
  9 10  4  0  0  0  0
 10 11  4  0  0  0  0
 11 12  4  0  0  0  0
 12 13  4  0  0  0  0
  9 13  4  0  0  0  0
 13 14  1  0  0  0  0
 14 15  2  0  0  0  0
 14 16  1  0  0  0  0
 16 17  4  0  0  0  0
 17 18  4  0  0  0  0
 18 19  4  0  0  0  0
 19 20  4  0  0  0  0
 20 21  4  0  0  0  0
 16 21  4  0  0  0  0
 21 22  1  0  0  0  0
 12 22  1  0  0  0  0
 22 23  2  0  0  0  0
M  END
> <IC50(uM)>
1.0

> <Outcome>
1.0

> <BindingDB ID>
51338164

> <BindingDB MonomerID>
50541638

> <BindingDB Ligand Name>
CHEMBL4637383

> <Curation/DataSource>
ChEMBL

> <Article DOI>
10.1021/acs.jmedchem.0c00512

> <PMID>
32496056

> <Patent Number>
?

> <Authors>
Zuo, Z; Liu, X; Qian, X; Zeng, T; Sang, N; Liu, H; Zhou, Y; Tao, L; Zhou, X; Su, N; Yu, Y; Chen, Q; Luo, Y; Zhao, Y

> <Link to Ligand in BindingDB>
http://www.bindingdb.org/bind/chemsearch/marvin/MolStructure.jsp?monomerid=50541638

> <Link to Ligand-Target Pair in BindingDB>
http://www.bindingdb.org/jsp/dbsearch/PrimarySearch_ki.jsp?energyterm=kJ/mole&tag=r21&monomerid=50541638&enzyme=Dihydroorotate+dehydrogenase&column=ki&startPg=0&Increment=50&submit=Search

> <PubChem CID>
156011689

> <PubChem SID>
442143201

$$$$

  Mrv2115 07222212352D          

 23 25  0  0  0  0            999 V2000
   -0.7145   -3.7125    0.0000 C   0  0  0  0  0  0  0  0  0  0  0  0
    0.0000   -4.1250    0.0000 C   0  0  0  0  0  0  0  0  0  0  0  0
    0.7145   -3.7125    0.0000 C   0  0  0  0  0  0  0  0  0  0  0  0
    0.7145   -2.8875    0.0000 C   0  0  0  0  0  0  0  0  0  0  0  0
    0.0000   -2.4750    0.0000 O   0  0  0  0  0  0  0  0  0  0  0  0
    1.4289   -2.4750    0.0000 N   0  0  0  0  0  0  0  0  0  0  0  0
    1.4289   -1.6500    0.0000 C   0  0  0  0  0  0  0  0  0  0  0  0
    0.7145   -1.2375    0.0000 C   0  0  0  0  0  0  0  0  0  0  0  0
    0.7145   -0.4125    0.0000 C   0  0  0  0  0  0  0  0  0  0  0  0
    1.4289    0.0000    0.0000 C   0  0  0  0  0  0  0  0  0  0  0  0
    2.1434   -0.4125    0.0000 C   0  0  0  0  0  0  0  0  0  0  0  0
    2.8579    0.0000    0.0000 C   0  0  0  0  0  0  0  0  0  0  0  0
    3.5724   -0.4125    0.0000 C   0  0  0  0  0  0  0  0  0  0  0  0
    3.5724   -1.2375    0.0000 C   0  0  0  0  0  0  0  0  0  0  0  0
    2.8579   -1.6500    0.0000 C   0  0  0  0  0  0  0  0  0  0  0  0
    2.1434   -1.2375    0.0000 C   0  0  0  0  0  0  0  0  0  0  0  0
    1.4289   -4.1250    0.0000 C   0  0  0  0  0  0  0  0  0  0  0  0
    1.4289   -4.9500    0.0000 C   0  0  0  0  0  0  0  0  0  0  0  0
    0.7145   -5.3625    0.0000 C   0  0  0  0  0  0  0  0  0  0  0  0
    0.0000   -4.9500    0.0000 C   0  0  0  0  0  0  0  0  0  0  0  0
   -0.7145   -5.3625    0.0000 N   0  3  0  0  0  0  0  0  0  0  0  0
   -0.7145   -6.1875    0.0000 O   0  0  0  0  0  0  0  0  0  0  0  0
   -1.4289   -4.9500    0.0000 O   0  5  0  0  0  0  0  0  0  0  0  0
  1  2  1  0  0  0  0
  2  3  4  0  0  0  0
  3  4  1  0  0  0  0
  4  5  2  0  0  0  0
  4  6  1  0  0  0  0
  6  7  1  0  0  0  0
  7  8  4  0  0  0  0
  8  9  4  0  0  0  0
  9 10  4  0  0  0  0
 10 11  4  0  0  0  0
 11 12  4  0  0  0  0
 12 13  4  0  0  0  0
 13 14  4  0  0  0  0
 14 15  4  0  0  0  0
 15 16  4  0  0  0  0
  7 16  4  0  0  0  0
 11 16  4  0  0  0  0
  3 17  4  0  0  0  0
 17 18  4  0  0  0  0
 18 19  4  0  0  0  0
 19 20  4  0  0  0  0
  2 20  4  0  0  0  0
 20 21  1  0  0  0  0
 21 22  2  0  0  0  0
 21 23  1  0  0  0  0
M  CHG  2  21   1  23  -1
M  END
> <IC50(uM)>
100.0

> <Outcome>
0.0

> <BindingDB ID>
28101

> <BindingDB MonomerID>
15353

> <BindingDB Ligand Name>
2-methyl-N-(naphthalen-1-yl)-3-nitrobenzamide::ChemBridge compound no. 8

> <Curation/DataSource>
Curated from the literature by BindingDB

> <Article DOI>
10.1074/jbc.M501100200

> <PMID>
15795226

> <Patent Number>
?

> <Authors>
Baldwin, J; Michnoff, CH; Malmquist, NA; White, J; Roth, MG; Rathod, PK; Phillips, MA

> <Link to Ligand in BindingDB>
http://www.bindingdb.org/bind/chemsearch/marvin/MolStructure.jsp?monomerid=15353

> <Link to Ligand-Target Pair in BindingDB>
http://www.bindingdb.org/jsp/dbsearch/PrimarySearch_ki.jsp?energyterm=kJ/mole&tag=r21&monomerid=15353&enzyme=Dihydroorotate+Dehydrogenase+%28DHODH%29&column=ki&startPg=0&Increment=50&submit=Search

> <PubChem CID>
773737

> <PubChem SID>
46515653

$$$$

  Mrv2115 07222212352D          

 32 36  0  0  0  0            999 V2000
   -0.1712   -0.6979    0.0000 C   0  0  0  0  0  0  0  0  0  0  0  0
    0.6538   -0.6979    0.0000 C   0  0  0  0  0  0  0  0  0  0  0  0
    1.1387   -0.0305    0.0000 N   0  0  0  0  0  0  0  0  0  0  0  0
    1.9233   -0.2854    0.0000 C   0  0  0  0  0  0  0  0  0  0  0  0
    2.6378    0.1271    0.0000 C   0  0  0  0  0  0  0  0  0  0  0  0
    2.6378    0.9521    0.0000 C   0  0  0  0  0  0  0  0  0  0  0  0
    3.3523    1.3646    0.0000 O   0  0  0  0  0  0  0  0  0  0  0  0
    1.9233    1.3646    0.0000 O   0  0  0  0  0  0  0  0  0  0  0  0
    3.3523   -0.2854    0.0000 C   0  0  0  0  0  0  0  0  0  0  0  0
    3.3523   -1.1104    0.0000 C   0  0  0  0  0  0  0  0  0  0  0  0
    4.0668   -1.5229    0.0000 C   0  0  0  0  0  0  0  0  0  0  0  0
    4.7812   -1.1104    0.0000 C   0  0  0  0  0  0  0  0  0  0  0  0
    5.4957   -1.5229    0.0000 C   0  0  0  0  0  0  0  0  0  0  0  0
    5.4957   -2.3479    0.0000 C   0  0  0  0  0  0  0  0  0  0  0  0
    6.2102   -2.7604    0.0000 C   0  0  0  0  0  0  0  0  0  0  0  0
    6.9246   -2.3479    0.0000 C   0  0  0  0  0  0  0  0  0  0  0  0
    7.6391   -2.7604    0.0000 C   0  0  0  0  0  0  0  0  0  0  0  0
    7.6391   -3.5854    0.0000 C   0  0  0  0  0  0  0  0  0  0  0  0
    6.9246   -3.9979    0.0000 C   0  0  0  0  0  0  0  0  0  0  0  0
    6.2102   -3.5854    0.0000 C   0  0  0  0  0  0  0  0  0  0  0  0
    5.4957   -3.9979    0.0000 C   0  0  0  0  0  0  0  0  0  0  0  0
    5.4957   -4.8229    0.0000 N   0  0  0  0  0  0  0  0  0  0  0  0
    6.2102   -5.2354    0.0000 C   0  0  0  0  0  0  0  0  0  0  0  0
    6.2102   -6.0604    0.0000 C   0  0  0  0  0  0  0  0  0  0  0  0
    5.4957   -6.4729    0.0000 C   0  0  0  0  0  0  0  0  0  0  0  0
    4.7812   -6.0604    0.0000 C   0  0  0  0  0  0  0  0  0  0  0  0
    4.7812   -5.2354    0.0000 C   0  0  0  0  0  0  0  0  0  0  0  0
    4.7812   -2.7604    0.0000 C   0  0  0  0  0  0  0  0  0  0  0  0
    4.0668   -2.3479    0.0000 C   0  0  0  0  0  0  0  0  0  0  0  0
    2.6378   -1.5229    0.0000 C   0  0  0  0  0  0  0  0  0  0  0  0
    1.9233   -1.1104    0.0000 C   0  0  0  0  0  0  0  0  0  0  0  0
    1.1387   -1.3654    0.0000 N   0  0  0  0  0  0  0  0  0  0  0  0
  1  2  1  0  0  0  0
  2  3  4  0  0  0  0
  3  4  4  0  0  0  0
  4  5  4  0  0  0  0
  5  6  1  0  0  0  0
  6  7  2  0  0  0  0
  6  8  1  0  0  0  0
  5  9  4  0  0  0  0
  9 10  4  0  0  0  0
 10 11  1  0  0  0  0
 11 12  4  0  0  0  0
 12 13  4  0  0  0  0
 13 14  4  0  0  0  0
 14 15  1  0  0  0  0
 15 16  4  0  0  0  0
 16 17  4  0  0  0  0
 17 18  4  0  0  0  0
 18 19  4  0  0  0  0
 19 20  4  0  0  0  0
 15 20  4  0  0  0  0
 20 21  1  0  0  0  0
 21 22  1  0  0  0  0
 22 23  1  0  0  0  0
 23 24  1  0  0  0  0
 24 25  1  0  0  0  0
 25 26  1  0  0  0  0
 26 27  1  0  0  0  0
 22 27  1  0  0  0  0
 14 28  4  0  0  0  0
 28 29  4  0  0  0  0
 11 29  4  0  0  0  0
 10 30  4  0  0  0  0
 30 31  4  0  0  0  0
  4 31  4  0  0  0  0
 31 32  4  0  0  0  0
  2 32  4  0  0  0  0
M  STY  1   1 DAT
M  SAL   1  1  32
M  SDT   1 MRV_IMPLICIT_H                                        
M  SDD   1     0.5304   -0.4125    DR    ALL  0       0  
M  SED   1 IMPL_H1
M  END
> <IC50(uM)>
0.055

> <Outcome>
1.0

> <BindingDB ID>
1045596

> <BindingDB MonomerID>
501654

> <BindingDB Ligand Name>
US11028054, Example 42

> <Curation/DataSource>
US Patent

> <Article DOI>
?

> <PMID>
?

> <Patent Number>
US11028054

> <Authors>
Thunuguntla, SS; Hosahalli, S; Panigrahi, SK; Schwarz, M; Arit, M

> <Link to Ligand in BindingDB>
http://www.bindingdb.org/bind/chemsearch/marvin/MolStructure.jsp?monomerid=501654

> <Link to Ligand-Target Pair in BindingDB>
http://www.bindingdb.org/jsp/dbsearch/PrimarySearch_ki.jsp?energyterm=kJ/mole&tag=r21&monomerid=501654&enzyme=Dihydroorotate+dehydrogenase&column=ki&startPg=0&Increment=50&submit=Search

> <PubChem CID>
?

> <PubChem SID>
?

$$$$

  Mrv2115 07222212352D          

 26 27  0  0  0  0            999 V2000
   -2.1434   -3.7125    0.0000 C   0  0  0  0  0  0  0  0  0  0  0  0
   -1.4289   -4.1250    0.0000 C   0  0  0  0  0  0  0  0  0  0  0  0
   -1.4289   -4.9500    0.0000 O   0  0  0  0  0  0  0  0  0  0  0  0
   -0.7145   -3.7125    0.0000 C   0  0  0  0  0  0  0  0  0  0  0  0
   -0.7145   -2.8875    0.0000 C   0  0  0  0  0  0  0  0  0  0  0  0
   -0.7145   -2.0625    0.0000 N   0  0  0  0  0  0  0  0  0  0  0  0
    0.0000   -4.1250    0.0000 C   0  0  0  0  0  0  0  0  0  0  0  0
    0.0000   -4.9500    0.0000 O   0  0  0  0  0  0  0  0  0  0  0  0
    0.7145   -3.7125    0.0000 N   0  0  0  0  0  0  0  0  0  0  0  0
    0.7145   -2.8875    0.0000 C   0  0  0  0  0  0  0  0  0  0  0  0
    0.0000   -2.4750    0.0000 C   0  0  0  0  0  0  0  0  0  0  0  0
    0.0000   -1.6500    0.0000 C   0  0  0  0  0  0  0  0  0  0  0  0
    0.7145   -1.2375    0.0000 C   0  0  0  0  0  0  0  0  0  0  0  0
    0.7145   -0.4125    0.0000 C   0  0  0  0  0  0  0  0  0  0  0  0
    0.0000   -0.0000    0.0000 C   0  0  0  0  0  0  0  0  0  0  0  0
    0.0000    0.8250    0.0000 C   0  0  0  0  0  0  0  0  0  0  0  0
    0.7145    1.2375    0.0000 C   0  0  0  0  0  0  0  0  0  0  0  0
    1.4289    0.8250    0.0000 C   0  0  0  0  0  0  0  0  0  0  0  0
    2.1434    1.2375    0.0000 Cl  0  0  0  0  0  0  0  0  0  0  0  0
    1.4289   -0.0000    0.0000 C   0  0  0  0  0  0  0  0  0  0  0  0
    1.4289   -1.6500    0.0000 C   0  0  0  0  0  0  0  0  0  0  0  0
    1.4289   -2.4750    0.0000 C   0  0  0  0  0  0  0  0  0  0  0  0
    2.1434   -2.8875    0.0000 C   0  0  0  0  0  0  0  0  0  0  0  0
    2.8579   -3.3000    0.0000 F   0  0  0  0  0  0  0  0  0  0  0  0
    1.7309   -3.6020    0.0000 F   0  0  0  0  0  0  0  0  0  0  0  0
    2.5559   -2.1730    0.0000 F   0  0  0  0  0  0  0  0  0  0  0  0
  1  2  1  0  0  0  0
  2  3  2  0  0  0  0
  2  4  1  0  0  0  0
  4  5  1  0  0  0  0
  5  6  3  0  0  0  0
  4  7  1  0  0  0  0
  7  8  2  0  0  0  0
  7  9  1  0  0  0  0
  9 10  1  0  0  0  0
 10 11  4  0  0  0  0
 11 12  4  0  0  0  0
 12 13  4  0  0  0  0
 13 14  1  0  0  0  0
 14 15  4  0  0  0  0
 15 16  4  0  0  0  0
 16 17  4  0  0  0  0
 17 18  4  0  0  0  0
 18 19  1  0  0  0  0
 18 20  4  0  0  0  0
 14 20  4  0  0  0  0
 13 21  4  0  0  0  0
 21 22  4  0  0  0  0
 10 22  4  0  0  0  0
 22 23  1  0  0  0  0
 23 24  1  0  0  0  0
 23 25  1  0  0  0  0
 23 26  1  0  0  0  0
M  END
> <IC50(uM)>
86.6

> <Outcome>
0.0

> <BindingDB ID>
52793

> <BindingDB MonomerID>
29033

> <BindingDB Ligand Name>
cyanohydroxybutenamide, 23

> <Curation/DataSource>
Curated from the literature by BindingDB

> <Article DOI>
10.1021/jm800963t

> <PMID>
19351152

> <Patent Number>
?

> <Authors>
Davies, M; Heikkil&auml;, T; McConkey, GA; Fishwick, CW; Parsons, MR; Johnson, AP

> <Link to Ligand in BindingDB>
http://www.bindingdb.org/bind/chemsearch/marvin/MolStructure.jsp?monomerid=29033

> <Link to Ligand-Target Pair in BindingDB>
http://www.bindingdb.org/jsp/dbsearch/PrimarySearch_ki.jsp?energyterm=kJ/mole&tag=r21&monomerid=29033&enzyme=Dihydroorotate+dehydrogenase&column=ki&startPg=0&Increment=50&submit=Search

> <PubChem CID>
91896059

> <PubChem SID>
81054462

$$$$

  Mrv2115 07222212352D          

 31 34  0  0  0  0            999 V2000
   -3.9849    0.6507    0.0000 C   0  0  0  0  0  0  0  0  0  0  0  0
   -3.9849   -0.1743    0.0000 C   0  0  0  0  0  0  0  0  0  0  0  0
   -3.2704   -0.5868    0.0000 C   0  0  0  0  0  0  0  0  0  0  0  0
   -3.2704   -1.4118    0.0000 C   0  0  0  0  0  0  0  0  0  0  0  0
   -2.5559   -1.8243    0.0000 N   0  0  0  0  0  0  0  0  0  0  0  0
   -2.5559   -2.6493    0.0000 C   0  0  0  0  0  0  0  0  0  0  0  0
   -3.2704   -3.0618    0.0000 C   0  0  0  0  0  0  0  0  0  0  0  0
   -3.2704   -3.8868    0.0000 C   0  0  0  0  0  0  0  0  0  0  0  0
   -2.5559   -4.2993    0.0000 C   0  0  0  0  0  0  0  0  0  0  0  0
   -2.5559   -5.1243    0.0000 C   0  0  0  0  0  0  0  0  0  0  0  0
   -2.1434   -5.8388    0.0000 C   0  0  0  0  0  0  0  0  0  0  0  0
   -2.9684   -5.8388    0.0000 C   0  0  0  0  0  0  0  0  0  0  0  0
   -1.8414   -3.8868    0.0000 C   0  0  0  0  0  0  0  0  0  0  0  0
   -1.8414   -3.0618    0.0000 C   0  0  0  0  0  0  0  0  0  0  0  0
   -1.1270   -2.6493    0.0000 C   0  0  0  0  0  0  0  0  0  0  0  0
   -1.1270   -1.8243    0.0000 O   0  0  0  0  0  0  0  0  0  0  0  0
   -0.4125   -3.0618    0.0000 O   0  0  0  0  0  0  0  0  0  0  0  0
   -3.9849   -1.8243    0.0000 C   0  0  0  0  0  0  0  0  0  0  0  0
   -4.6993   -1.4118    0.0000 N   0  0  0  0  0  0  0  0  0  0  0  0
   -4.6993   -0.5868    0.0000 C   0  0  0  0  0  0  0  0  0  0  0  0
   -5.4138   -0.1743    0.0000 C   0  0  0  0  0  0  0  0  0  0  0  0
   -6.1283   -0.5868    0.0000 C   0  0  0  0  0  0  0  0  0  0  0  0
   -6.8427   -0.1743    0.0000 C   0  0  0  0  0  0  0  0  0  0  0  0
   -6.8427    0.6507    0.0000 C   0  0  0  0  0  0  0  0  0  0  0  0
   -6.1283    1.0632    0.0000 C   0  0  0  0  0  0  0  0  0  0  0  0
   -6.1283    1.8882    0.0000 O   0  0  0  0  0  0  0  0  0  0  0  0
   -6.8427    2.3007    0.0000 C   0  0  0  0  0  0  0  0  0  0  0  0
   -7.5572    2.7132    0.0000 F   0  0  0  0  0  0  0  0  0  0  0  0
   -6.4302    3.0151    0.0000 F   0  0  0  0  0  0  0  0  0  0  0  0
   -7.2552    1.5862    0.0000 F   0  0  0  0  0  0  0  0  0  0  0  0
   -5.4138    0.6507    0.0000 C   0  0  0  0  0  0  0  0  0  0  0  0
  1  2  1  0  0  0  0
  2  3  4  0  0  0  0
  3  4  4  0  0  0  0
  4  5  1  0  0  0  0
  5  6  1  0  0  0  0
  6  7  4  0  0  0  0
  7  8  4  0  0  0  0
  8  9  4  0  0  0  0
  9 10  1  0  0  0  0
 10 11  1  0  0  0  0
 11 12  1  0  0  0  0
 10 12  1  0  0  0  0
  9 13  4  0  0  0  0
 13 14  4  0  0  0  0
  6 14  4  0  0  0  0
 14 15  1  0  0  0  0
 15 16  2  0  0  0  0
 15 17  1  0  0  0  0
  4 18  4  0  0  0  0
 18 19  4  0  0  0  0
 19 20  4  0  0  0  0
  2 20  4  0  0  0  0
 20 21  1  0  0  0  0
 21 22  4  0  0  0  0
 22 23  4  0  0  0  0
 23 24  4  0  0  0  0
 24 25  4  0  0  0  0
 25 26  1  0  0  0  0
 26 27  1  0  0  0  0
 27 28  1  0  0  0  0
 27 29  1  0  0  0  0
 27 30  1  0  0  0  0
 25 31  4  0  0  0  0
 21 31  4  0  0  0  0
M  END
> <IC50(uM)>
0.005

> <Outcome>
1.0

> <BindingDB ID>
220006

> <BindingDB MonomerID>
102476

> <BindingDB Ligand Name>
US8536165, 73

> <Curation/DataSource>
US Patent

> <Article DOI>
?

> <PMID>
?

> <Patent Number>
US8536165

> <Authors>
Castro Palomino Laria, JC; Terricabras Belart, E; Erra Sola, M; Navarro Romero, E; Fonquerna Pou, S; Cardus Figueras, A; Lozoya Toribio, ME

> <Link to Ligand in BindingDB>
http://www.bindingdb.org/bind/chemsearch/marvin/MolStructure.jsp?monomerid=102476

> <Link to Ligand-Target Pair in BindingDB>
http://www.bindingdb.org/jsp/dbsearch/PrimarySearch_ki.jsp?energyterm=kJ/mole&tag=r21&monomerid=102476&enzyme=Dihydroorotate+dehydrogenase&column=ki&startPg=0&Increment=50&submit=Search

> <PubChem CID>
46213652

> <PubChem SID>
172097767

$$$$

  Mrv2115 07222212352D          

 34 37  0  0  0  0            999 V2000
   -0.7145    1.2375    0.0000 C   0  0  0  0  0  0  0  0  0  0  0  0
    0.0000    0.8250    0.0000 C   0  0  0  0  0  0  0  0  0  0  0  0
    0.0000   -0.0000    0.0000 O   0  0  0  0  0  0  0  0  0  0  0  0
    0.7145   -0.4125    0.0000 C   0  0  0  0  0  0  0  0  0  0  0  0
    1.4289   -0.0000    0.0000 O   0  0  0  0  0  0  0  0  0  0  0  0
    0.7145   -1.2375    0.0000 C   0  0  0  0  0  0  0  0  0  0  0  0
    1.3819   -1.7224    0.0000 S   0  0  0  0  0  0  0  0  0  0  0  0
    1.1270   -2.5070    0.0000 C   0  0  0  0  0  0  0  0  0  0  0  0
    1.6119   -3.1745    0.0000 N   0  0  0  0  0  0  0  0  0  0  0  0
    1.2763   -3.9282    0.0000 C   0  0  0  0  0  0  0  0  0  0  0  0
    1.7613   -4.5956    0.0000 C   0  0  0  0  0  0  0  0  0  0  0  0
    1.4257   -5.3493    0.0000 C   0  0  0  0  0  0  0  0  0  0  0  0
    0.6052   -5.4355    0.0000 C   0  0  0  0  0  0  0  0  0  0  0  0
    0.2697   -6.1892    0.0000 O   0  0  0  0  0  0  0  0  0  0  0  0
    0.7546   -6.8566    0.0000 C   0  0  0  0  0  0  0  0  0  0  0  0
    0.4190   -7.6103    0.0000 C   0  0  0  0  0  0  0  0  0  0  0  0
    0.9040   -8.2777    0.0000 C   0  0  0  0  0  0  0  0  0  0  0  0
    1.7244   -8.1915    0.0000 F   0  0  0  0  0  0  0  0  0  0  0  0
    0.5684   -9.0314    0.0000 C   0  0  0  0  0  0  0  0  0  0  0  0
   -0.2521   -9.1176    0.0000 C   0  0  0  0  0  0  0  0  0  0  0  0
   -0.7370   -8.4502    0.0000 C   0  0  0  0  0  0  0  0  0  0  0  0
   -0.4015   -7.6965    0.0000 C   0  0  0  0  0  0  0  0  0  0  0  0
   -0.8864   -7.0291    0.0000 Cl  0  0  0  0  0  0  0  0  0  0  0  0
    0.1203   -4.7681    0.0000 C   0  0  0  0  0  0  0  0  0  0  0  0
   -0.7002   -4.8543    0.0000 Cl  0  0  0  0  0  0  0  0  0  0  0  0
    0.4559   -4.0144    0.0000 C   0  0  0  0  0  0  0  0  0  0  0  0
    0.3020   -2.5070    0.0000 N   0  0  0  0  0  0  0  0  0  0  0  0
    0.0470   -1.7224    0.0000 C   0  0  0  0  0  0  0  0  0  0  0  0
   -0.7376   -1.4675    0.0000 C   0  0  0  0  0  0  0  0  0  0  0  0
   -1.3507   -2.0195    0.0000 C   0  0  0  0  0  0  0  0  0  0  0  0
   -2.1353   -1.7646    0.0000 C   0  0  0  0  0  0  0  0  0  0  0  0
   -2.3068   -0.9576    0.0000 C   0  0  0  0  0  0  0  0  0  0  0  0
   -1.6937   -0.4056    0.0000 C   0  0  0  0  0  0  0  0  0  0  0  0
   -0.9091   -0.6605    0.0000 C   0  0  0  0  0  0  0  0  0  0  0  0
  1  2  1  0  0  0  0
  2  3  1  0  0  0  0
  3  4  1  0  0  0  0
  4  5  2  0  0  0  0
  4  6  1  0  0  0  0
  6  7  4  0  0  0  0
  7  8  4  0  0  0  0
  8  9  1  0  0  0  0
  9 10  1  0  0  0  0
 10 11  4  0  0  0  0
 11 12  4  0  0  0  0
 12 13  4  0  0  0  0
 13 14  1  0  0  0  0
 14 15  1  0  0  0  0
 15 16  1  0  0  0  0
 16 17  4  0  0  0  0
 17 18  1  0  0  0  0
 17 19  4  0  0  0  0
 19 20  4  0  0  0  0
 20 21  4  0  0  0  0
 21 22  4  0  0  0  0
 16 22  4  0  0  0  0
 22 23  1  0  0  0  0
 13 24  4  0  0  0  0
 24 25  1  0  0  0  0
 24 26  4  0  0  0  0
 10 26  4  0  0  0  0
  8 27  4  0  0  0  0
 27 28  4  0  0  0  0
  6 28  4  0  0  0  0
 28 29  1  0  0  0  0
 29 30  4  0  0  0  0
 30 31  4  0  0  0  0
 31 32  4  0  0  0  0
 32 33  4  0  0  0  0
 33 34  4  0  0  0  0
 29 34  4  0  0  0  0
M  END
> <IC50(uM)>
10.0

> <Outcome>
0.0

> <BindingDB ID>
50312499

> <BindingDB MonomerID>
50071807

> <BindingDB Ligand Name>
CHEMBL3410619

> <Curation/DataSource>
ChEMBL

> <Article DOI>
10.1021/jm501127s

> <PMID>
25580811

> <Patent Number>
?

> <Authors>
Zhu, J; Han, L; Diao, Y; Ren, X; Xu, M; Xu, L; Li, S; Li, Q; Dong, D; Huang, J; Liu, X; Zhao, Z; Wang, R; Zhu, L; Xu, Y; Qian, X; Li, H

> <Link to Ligand in BindingDB>
http://www.bindingdb.org/bind/chemsearch/marvin/MolStructure.jsp?monomerid=50071807

> <Link to Ligand-Target Pair in BindingDB>
http://www.bindingdb.org/jsp/dbsearch/PrimarySearch_ki.jsp?energyterm=kJ/mole&tag=r21&monomerid=50071807&enzyme=Dihydroorotate+dehydrogenase&column=ki&startPg=0&Increment=50&submit=Search

> <PubChem CID>
118732527

> <PubChem SID>
103965517

$$$$

  Mrv2115 07222212352D          

 35 37  0  0  0  0            999 V2000
    2.1434   -3.7125    0.0000 C   0  0  0  0  0  0  0  0  0  0  0  0
    1.4289   -4.1250    0.0000 C   0  0  0  0  0  0  0  0  0  0  0  0
    1.4289   -4.9500    0.0000 N   0  0  0  0  0  0  0  0  0  0  0  0
    2.0964   -5.4349    0.0000 C   0  0  0  0  0  0  0  0  0  0  0  0
    2.8810   -5.1800    0.0000 C   0  0  0  0  0  0  0  0  0  0  0  0
    3.4941   -5.7320    0.0000 O   0  0  0  0  0  0  0  0  0  0  0  0
    3.0525   -4.3730    0.0000 O   0  0  0  0  0  0  0  0  0  0  0  0
    1.8414   -6.2195    0.0000 N   0  0  0  0  0  0  0  0  0  0  0  0
    1.0164   -6.2195    0.0000 N   0  0  0  0  0  0  0  0  0  0  0  0
    0.5315   -6.8870    0.0000 C   0  0  0  0  0  0  0  0  0  0  0  0
    0.8671   -7.6407    0.0000 C   0  0  0  0  0  0  0  0  0  0  0  0
    0.3822   -8.3081    0.0000 C   0  0  0  0  0  0  0  0  0  0  0  0
   -0.4383   -8.2219    0.0000 C   0  0  0  0  0  0  0  0  0  0  0  0
   -0.9232   -8.8893    0.0000 C   0  0  0  0  0  0  0  0  0  0  0  0
   -1.7437   -8.8031    0.0000 O   0  0  0  0  0  0  0  0  0  0  0  0
   -0.5877   -9.6430    0.0000 N   0  0  0  0  0  0  0  0  0  0  0  0
   -1.0726  -10.3104    0.0000 C   0  0  0  0  0  0  0  0  0  0  0  0
   -0.7371  -11.0641    0.0000 C   0  0  0  0  0  0  0  0  0  0  0  0
    0.0834  -11.1503    0.0000 F   0  0  0  0  0  0  0  0  0  0  0  0
   -1.2220  -11.7315    0.0000 C   0  0  0  0  0  0  0  0  0  0  0  0
   -2.0425  -11.6453    0.0000 C   0  0  0  0  0  0  0  0  0  0  0  0
   -2.3780  -10.8916    0.0000 C   0  0  0  0  0  0  0  0  0  0  0  0
   -1.8931  -10.2242    0.0000 C   0  0  0  0  0  0  0  0  0  0  0  0
   -2.2287   -9.4705    0.0000 F   0  0  0  0  0  0  0  0  0  0  0  0
   -0.7739   -7.4682    0.0000 C   0  0  0  0  0  0  0  0  0  0  0  0
   -1.5944   -7.3820    0.0000 O   0  0  0  0  0  0  0  0  0  0  0  0
   -1.9299   -6.6283    0.0000 C   0  0  0  0  0  0  0  0  0  0  0  0
   -2.7504   -6.5420    0.0000 C   0  0  0  0  0  0  0  0  0  0  0  0
   -1.4450   -5.9608    0.0000 C   0  0  0  0  0  0  0  0  0  0  0  0
   -0.7776   -6.4458    0.0000 F   0  0  0  0  0  0  0  0  0  0  0  0
   -2.1124   -5.4759    0.0000 F   0  0  0  0  0  0  0  0  0  0  0  0
   -0.9601   -5.2934    0.0000 F   0  0  0  0  0  0  0  0  0  0  0  0
   -0.2890   -6.8007    0.0000 C   0  0  0  0  0  0  0  0  0  0  0  0
    0.7615   -5.4349    0.0000 C   0  0  0  0  0  0  0  0  0  0  0  0
   -0.0231   -5.1800    0.0000 O   0  0  0  0  0  0  0  0  0  0  0  0
  1  2  1  0  0  0  0
  2  3  1  0  0  0  0
  3  4  4  0  0  0  0
  4  5  1  0  0  0  0
  5  6  2  0  0  0  0
  5  7  1  0  0  0  0
  4  8  4  0  0  0  0
  8  9  4  0  0  0  0
  9 10  1  0  0  0  0
 10 11  4  0  0  0  0
 11 12  4  0  0  0  0
 12 13  4  0  0  0  0
 13 14  1  0  0  0  0
 14 15  2  0  0  0  0
 14 16  1  0  0  0  0
 16 17  1  0  0  0  0
 17 18  4  0  0  0  0
 18 19  1  0  0  0  0
 18 20  4  0  0  0  0
 20 21  4  0  0  0  0
 21 22  4  0  0  0  0
 22 23  4  0  0  0  0
 17 23  4  0  0  0  0
 23 24  1  0  0  0  0
 13 25  4  0  0  0  0
 25 26  1  0  0  0  0
 26 27  1  0  0  0  0
 27 28  1  0  0  0  0
 27 29  1  0  0  0  0
 29 30  1  0  0  0  0
 29 31  1  0  0  0  0
 29 32  1  0  0  0  0
 25 33  4  0  0  0  0
 10 33  4  0  0  0  0
  9 34  4  0  0  0  0
  3 34  4  0  0  0  0
 34 35  2  0  0  0  0
M  END
> <IC50(uM)>
0.009

> <Outcome>
1.0

> <BindingDB ID>
1098829; 972675

> <BindingDB MonomerID>
470553

> <BindingDB Ligand Name>
1-(4-[(2,6-difluorophenyl)carbamoyl]-3-{[(2S)-1,1,1-trifluoropropan-2-yl]oxy}phenyl)-4-ethyl-5-oxo-4,5-dihydro-1H-1,2,4-triazole-3-carboxylic acid::US10815215, Example 213::US11130745, Example 213; 1-(4-[(2,6-difluorophenyl)carbamoyl]-3-{[(2S)-1,1,1-trifluoropropan-2-yl]oxy}phenyl)-4-ethyl-5-oxo-4,5-dihydro-1H-1,2,4-triazole-3-carboxylic acid::US10815215, Example 213

> <Curation/DataSource>
US Patent

> <Article DOI>
?

> <PMID>
?

> <Patent Number>
US11130745; US10815215

> <Authors>
Gradl, SN; Nguyen, D; Eis, K; Gunther, J; Stellfeld, T; Janzer, A; Christian, S; Muller, T; Sheikh, SE; Sykes, DB; Ferrara, SJ; Krober, M; Merz, C; Niehues, M; Schafer, M; Zimmermann, K; Nising, CF; Gradl, SN; Nguyen, D; Eis, K; Gunther, J; Stellfeld, T; Janzer, A; Christian, S; Muller, T; Sheikh, SE; Zhou, HJ; Zhao, C; Sykes, DB; Ferrara, SJ; Liu, K; Krober, M; Merz, C; Niehues, M; Schafer, M; Zimmermann, K; Nising, CF

> <Link to Ligand in BindingDB>
http://www.bindingdb.org/bind/chemsearch/marvin/MolStructure.jsp?monomerid=470553

> <Link to Ligand-Target Pair in BindingDB>
http://www.bindingdb.org/jsp/dbsearch/PrimarySearch_ki.jsp?energyterm=kJ/mole&tag=r21&monomerid=470553&enzyme=Dihydroorotate+dehydrogenase&column=ki&startPg=0&Increment=50&submit=Search

> <PubChem CID>
134470147

> <PubChem SID>
441609729

$$$$

  Mrv2115 07222212352D          

 25 26  0  0  0  0            999 V2000
   -3.5724   -1.2375    0.0000 C   0  0  0  0  0  0  0  0  0  0  0  0
   -2.8579   -1.6500    0.0000 O   0  0  0  0  0  0  0  0  0  0  0  0
   -2.1434   -1.2375    0.0000 C   0  0  0  0  0  0  0  0  0  0  0  0
   -2.1434   -0.4125    0.0000 O   0  0  0  0  0  0  0  0  0  0  0  0
   -1.4289   -1.6500    0.0000 C   0  0  0  0  0  0  0  0  0  0  0  0
   -0.7145   -1.2375    0.0000 C   0  0  0  0  0  0  0  0  0  0  0  0
    0.0000   -1.6500    0.0000 C   0  0  0  0  0  0  0  0  0  0  0  0
    0.0000   -2.4750    0.0000 C   0  0  0  0  0  0  0  0  0  0  0  0
    0.7145   -2.8875    0.0000 C   0  0  0  0  0  0  0  0  0  0  0  0
    1.4289   -2.4750    0.0000 C   0  0  0  0  0  0  0  0  0  0  0  0
    2.1434   -2.8875    0.0000 C   0  0  0  0  0  0  0  0  0  0  0  0
    2.8579   -2.4750    0.0000 C   0  0  0  0  0  0  0  0  0  0  0  0
    3.5724   -2.8875    0.0000 C   0  0  0  0  0  0  0  0  0  0  0  0
    4.2868   -2.4750    0.0000 C   0  0  0  0  0  0  0  0  0  0  0  0
    4.2868   -1.6500    0.0000 C   0  0  0  0  0  0  0  0  0  0  0  0
    5.0013   -1.2375    0.0000 O   0  0  0  0  0  0  0  0  0  0  0  0
    3.5724   -1.2375    0.0000 O   0  0  0  0  0  0  0  0  0  0  0  0
    5.0013   -2.8875    0.0000 N   0  0  0  0  0  0  0  0  0  0  0  0
    5.0013   -3.7125    0.0000 C   0  0  0  0  0  0  0  0  0  0  0  0
    5.7158   -4.1250    0.0000 O   0  0  0  0  0  0  0  0  0  0  0  0
    4.2868   -4.1250    0.0000 N   0  0  0  0  0  0  0  0  0  0  0  0
    3.5724   -3.7125    0.0000 C   0  0  0  0  0  0  0  0  0  0  0  0
    2.8579   -4.1250    0.0000 O   0  0  0  0  0  0  0  0  0  0  0  0
   -0.7145   -2.8875    0.0000 C   0  0  0  0  0  0  0  0  0  0  0  0
   -1.4289   -2.4750    0.0000 C   0  0  0  0  0  0  0  0  0  0  0  0
  1  2  1  0  0  0  0
  2  3  1  0  0  0  0
  3  4  2  0  0  0  0
  3  5  1  0  0  0  0
  5  6  4  0  0  0  0
  6  7  4  0  0  0  0
  7  8  4  0  0  0  0
  8  9  1  0  0  0  0
  9 10  1  0  0  0  0
 10 11  1  0  0  0  0
 11 12  1  0  0  0  0
 12 13  1  0  0  0  0
 13 14  4  0  0  0  0
 14 15  1  0  0  0  0
 15 16  2  0  0  0  0
 15 17  1  0  0  0  0
 14 18  4  0  0  0  0
 18 19  4  0  0  0  0
 19 20  2  0  0  0  0
 19 21  4  0  0  0  0
 21 22  4  0  0  0  0
 13 22  4  0  0  0  0
 22 23  2  0  0  0  0
  8 24  4  0  0  0  0
 24 25  4  0  0  0  0
  5 25  4  0  0  0  0
M  STY  2   1 DAT   2 DAT
M  SAL   1  1  18
M  SDT   1 MRV_IMPLICIT_H                                        
M  SDD   1     0.5304   -0.4125    DR    ALL  0       0  
M  SED   1 IMPL_H1
M  SAL   2  1  21
M  SDT   2 MRV_IMPLICIT_H                                        
M  SDD   2     0.6482   -0.4125    DR    ALL  0       0  
M  SED   2 IMPL_H1
M  END
> <IC50(uM)>
0.434

> <Outcome>
1.0

> <BindingDB ID>
50555399

> <BindingDB MonomerID>
50211948

> <BindingDB Ligand Name>
CHEMBL3929601

> <Curation/DataSource>
ChEMBL

> <Article DOI>
10.1016/j.bmc.2017.01.009

> <PMID>
28118956

> <Patent Number>
?

> <Authors>
Inaoka, DK; Iida, M; Hashimoto, S; Tabuchi, T; Kuranaga, T; Balogun, EO; Honma, T; Tanaka, A; Harada, S; Nara, T; Kita, K; Inoue, M

> <Link to Ligand in BindingDB>
http://www.bindingdb.org/bind/chemsearch/marvin/MolStructure.jsp?monomerid=50211948

> <Link to Ligand-Target Pair in BindingDB>
http://www.bindingdb.org/jsp/dbsearch/PrimarySearch_ki.jsp?energyterm=kJ/mole&tag=r21&monomerid=50211948&enzyme=Dihydroorotate+dehydrogenase&column=ki&startPg=0&Increment=50&submit=Search

> <PubChem CID>
134138544

> <PubChem SID>
375983073

$$$$

  Mrv2115 07222212352D          

 25 27  0  0  0  0            999 V2000
    3.1468   -6.8007    0.0000 O   0  0  0  0  0  0  0  0  0  0  0  0
    2.3264   -6.8870    0.0000 C   0  0  0  0  0  0  0  0  0  0  0  0
    1.9908   -7.6407    0.0000 O   0  0  0  0  0  0  0  0  0  0  0  0
    1.8414   -6.2195    0.0000 C   0  0  0  0  0  0  0  0  0  0  0  0
    1.0164   -6.2195    0.0000 C   0  0  0  0  0  0  0  0  0  0  0  0
    0.5315   -6.8870    0.0000 C   0  0  0  0  0  0  0  0  0  0  0  0
   -0.2890   -6.8007    0.0000 O   0  0  0  0  0  0  0  0  0  0  0  0
    0.8671   -7.6407    0.0000 N   0  0  0  0  0  0  0  0  0  0  0  0
    0.3822   -8.3081    0.0000 C   0  0  0  0  0  0  0  0  0  0  0  0
    0.7177   -9.0618    0.0000 C   0  0  0  0  0  0  0  0  0  0  0  0
    0.2328   -9.7292    0.0000 C   0  0  0  0  0  0  0  0  0  0  0  0
   -0.5877   -9.6430    0.0000 C   0  0  0  0  0  0  0  0  0  0  0  0
   -1.0726  -10.3104    0.0000 C   0  0  0  0  0  0  0  0  0  0  0  0
   -0.7371  -11.0641    0.0000 C   0  0  0  0  0  0  0  0  0  0  0  0
   -1.2220  -11.7315    0.0000 C   0  0  0  0  0  0  0  0  0  0  0  0
   -2.0425  -11.6453    0.0000 C   0  0  0  0  0  0  0  0  0  0  0  0
   -2.3780  -10.8916    0.0000 C   0  0  0  0  0  0  0  0  0  0  0  0
   -1.8931  -10.2242    0.0000 C   0  0  0  0  0  0  0  0  0  0  0  0
   -0.9232   -8.8893    0.0000 C   0  0  0  0  0  0  0  0  0  0  0  0
   -0.4383   -8.2219    0.0000 C   0  0  0  0  0  0  0  0  0  0  0  0
    0.7615   -5.4349    0.0000 C   0  0  0  0  0  0  0  0  0  0  0  0
    1.4289   -4.9500    0.0000 S   0  0  0  0  0  0  0  0  0  0  0  0
    0.8769   -4.3369    0.0000 O   0  0  0  0  0  0  0  0  0  0  0  0
    1.9810   -4.3369    0.0000 O   0  0  0  0  0  0  0  0  0  0  0  0
    2.0964   -5.4349    0.0000 C   0  0  0  0  0  0  0  0  0  0  0  0
  1  2  2  0  0  0  0
  2  3  1  0  0  0  0
  2  4  1  0  0  0  0
  4  5  2  0  0  0  0
  5  6  1  0  0  0  0
  6  7  2  0  0  0  0
  6  8  1  0  0  0  0
  8  9  1  0  0  0  0
  9 10  4  0  0  0  0
 10 11  4  0  0  0  0
 11 12  4  0  0  0  0
 12 13  1  0  0  0  0
 13 14  4  0  0  0  0
 14 15  4  0  0  0  0
 15 16  4  0  0  0  0
 16 17  4  0  0  0  0
 17 18  4  0  0  0  0
 13 18  4  0  0  0  0
 12 19  4  0  0  0  0
 19 20  4  0  0  0  0
  9 20  4  0  0  0  0
  5 21  1  0  0  0  0
 21 22  1  0  0  0  0
 22 23  2  0  0  0  0
 22 24  2  0  0  0  0
 22 25  1  0  0  0  0
  4 25  1  0  0  0  0
M  END
> <IC50(uM)>
3.8

> <Outcome>
0.0

> <BindingDB ID>
50319891

> <BindingDB MonomerID>
50173154

> <BindingDB Ligand Name>
4-(Biphenyl-4-ylcarbamoyl)-1,1-dioxo-2,5-dihydro-1H-1lambda*6*-thiophene-3-carboxylic acid::CHEMBL196173

> <Curation/DataSource>
ChEMBL

> <Article DOI>
10.1016/j.bmcl.2005.07.053

> <PMID>
16143532

> <Patent Number>
?

> <Authors>
Leban, J; Kralik, M; Mies, J; Gassen, M; Tentschert, K; Baumgartner, R

> <Link to Ligand in BindingDB>
http://www.bindingdb.org/bind/chemsearch/marvin/MolStructure.jsp?monomerid=50173154

> <Link to Ligand-Target Pair in BindingDB>
http://www.bindingdb.org/jsp/dbsearch/PrimarySearch_ki.jsp?energyterm=kJ/mole&tag=r21&monomerid=50173154&enzyme=Dihydroorotate+dehydrogenase&column=ki&startPg=0&Increment=50&submit=Search

> <PubChem CID>
44403223

> <PubChem SID>
104059125

$$$$

  Mrv2115 07222212352D          

 23 24  0  0  0  0            999 V2000
    3.4656    1.1759    0.0000 C   0  0  0  0  0  0  0  0  0  0  0  0
    2.7512    0.7634    0.0000 C   0  0  0  0  0  0  0  0  0  0  0  0
    2.7512   -0.0616    0.0000 O   0  0  0  0  0  0  0  0  0  0  0  0
    2.0367   -0.4741    0.0000 C   0  0  0  0  0  0  0  0  0  0  0  0
    1.3222   -0.0616    0.0000 O   0  0  0  0  0  0  0  0  0  0  0  0
    2.0367   -1.2991    0.0000 C   0  0  0  0  0  0  0  0  0  0  0  0
    2.7041   -1.7840    0.0000 N   0  0  0  0  0  0  0  0  0  0  0  0
    2.4492   -2.5687    0.0000 C   0  0  0  0  0  0  0  0  0  0  0  0
    2.9341   -3.2361    0.0000 C   0  0  0  0  0  0  0  0  0  0  0  0
    1.6242   -2.5687    0.0000 C   0  0  0  0  0  0  0  0  0  0  0  0
    1.1393   -3.2361    0.0000 C   0  0  0  0  0  0  0  0  0  0  0  0
    0.3188   -3.1499    0.0000 C   0  0  0  0  0  0  0  0  0  0  0  0
   -0.1661   -3.8173    0.0000 C   0  0  0  0  0  0  0  0  0  0  0  0
   -0.9866   -3.7311    0.0000 C   0  0  0  0  0  0  0  0  0  0  0  0
   -1.3222   -2.9774    0.0000 C   0  0  0  0  0  0  0  0  0  0  0  0
   -2.1426   -2.8911    0.0000 C   0  0  0  0  0  0  0  0  0  0  0  0
   -2.9631   -2.8049    0.0000 F   0  0  0  0  0  0  0  0  0  0  0  0
   -2.0564   -2.0707    0.0000 F   0  0  0  0  0  0  0  0  0  0  0  0
   -2.2289   -3.7116    0.0000 F   0  0  0  0  0  0  0  0  0  0  0  0
   -0.8372   -2.3099    0.0000 C   0  0  0  0  0  0  0  0  0  0  0  0
   -0.0168   -2.3962    0.0000 C   0  0  0  0  0  0  0  0  0  0  0  0
    1.3693   -1.7840    0.0000 C   0  0  0  0  0  0  0  0  0  0  0  0
    0.5846   -1.5291    0.0000 C   0  0  0  0  0  0  0  0  0  0  0  0
  1  2  1  0  0  0  0
  2  3  1  0  0  0  0
  3  4  1  0  0  0  0
  4  5  2  0  0  0  0
  4  6  1  0  0  0  0
  6  7  4  0  0  0  0
  7  8  4  0  0  0  0
  8  9  1  0  0  0  0
  8 10  4  0  0  0  0
 10 11  1  0  0  0  0
 11 12  1  0  0  0  0
 12 13  4  0  0  0  0
 13 14  4  0  0  0  0
 14 15  4  0  0  0  0
 15 16  1  0  0  0  0
 16 17  1  0  0  0  0
 16 18  1  0  0  0  0
 16 19  1  0  0  0  0
 15 20  4  0  0  0  0
 20 21  4  0  0  0  0
 12 21  4  0  0  0  0
 10 22  4  0  0  0  0
  6 22  4  0  0  0  0
 22 23  1  0  0  0  0
M  STY  1   1 DAT
M  SAL   1  1   7
M  SDT   1 MRV_IMPLICIT_H                                        
M  SDD   1     0.5304   -0.4125    DR    ALL  0       0  
M  SED   1 IMPL_H1
M  END
> <IC50(uM)>
100.0

> <Outcome>
0.0

> <BindingDB ID>
51330078

> <BindingDB MonomerID>
50538326

> <BindingDB Ligand Name>
CHEMBL4642145

> <Curation/DataSource>
ChEMBL

> <Article DOI>
10.1021/acs.jmedchem.0c00311

> <PMID>
32248693

> <Patent Number>
?

> <Authors>
Kokkonda, S; Deng, X; White, KL; El Mazouni, F; White, J; Shackleford, DM; Katneni, K; Chiu, FCK; Barker, H; McLaren, J; Crighton, E; Chen, G; Angulo-Barturen, I; Jimenez-Diaz, MB; Ferrer, S; Huertas-Valentin, L; Martinez-Martinez, MS; Lafuente-Monasterio, MJ; Chittimalla, R; Shahi, SP; Wittlin, S; Waterson, D; Burrows, JN; Matthews, D; Tomchick, D; Rathod, PK; Palmer, MJ; Charman, SA; Phillips, MA

> <Link to Ligand in BindingDB>
http://www.bindingdb.org/bind/chemsearch/marvin/MolStructure.jsp?monomerid=50538326

> <Link to Ligand-Target Pair in BindingDB>
http://www.bindingdb.org/jsp/dbsearch/PrimarySearch_ki.jsp?energyterm=kJ/mole&tag=r21&monomerid=50538326&enzyme=Dihydroorotate+dehydrogenase&column=ki&startPg=0&Increment=50&submit=Search

> <PubChem CID>
146020611

> <PubChem SID>
442139889

$$$$

  Mrv2115 07222212352D          

 36 38  0  0  0  0            999 V2000
    4.2868   -2.4750    0.0000 C   0  0  0  0  0  0  0  0  0  0  0  0
    3.5724   -2.8875    0.0000 C   0  0  0  0  0  0  0  0  0  0  0  0
    2.8579   -2.4750    0.0000 O   0  0  0  0  0  0  0  0  0  0  0  0
    2.1434   -2.8875    0.0000 C   0  0  0  0  0  0  0  0  0  0  0  0
    2.1434   -3.7125    0.0000 C   0  0  0  0  0  0  0  0  0  0  0  0
    1.4289   -4.1250    0.0000 C   0  0  0  0  0  0  0  0  0  0  0  0
    1.4289   -4.9500    0.0000 N   0  0  0  0  0  0  0  0  0  0  0  0
    2.0964   -5.4349    0.0000 N   0  0  0  0  0  0  0  0  0  0  0  0
    1.8414   -6.2195    0.0000 C   0  0  0  0  0  0  0  0  0  0  0  0
    2.3264   -6.8870    0.0000 C   0  0  0  0  0  0  0  0  0  0  0  0
    1.9908   -7.6407    0.0000 N   0  0  0  0  0  0  0  0  0  0  0  0
    2.4757   -8.3081    0.0000 C   0  0  0  0  0  0  0  0  0  0  0  0
    1.1703   -7.7269    0.0000 C   0  0  0  0  0  0  0  0  0  0  0  0
    1.0164   -6.2195    0.0000 N   0  0  0  0  0  0  0  0  0  0  0  0
    0.5315   -6.8870    0.0000 C   0  0  0  0  0  0  0  0  0  0  0  0
    0.7615   -5.4349    0.0000 C   0  0  0  0  0  0  0  0  0  0  0  0
   -0.0231   -5.1800    0.0000 O   0  0  0  0  0  0  0  0  0  0  0  0
    0.7145   -3.7125    0.0000 C   0  0  0  0  0  0  0  0  0  0  0  0
    0.0000   -4.1250    0.0000 F   0  0  0  0  0  0  0  0  0  0  0  0
    0.7145   -2.8875    0.0000 C   0  0  0  0  0  0  0  0  0  0  0  0
    1.4289   -2.4750    0.0000 C   0  0  0  0  0  0  0  0  0  0  0  0
    1.4289   -1.6500    0.0000 C   0  0  0  0  0  0  0  0  0  0  0  0
    2.1434   -1.2375    0.0000 O   0  0  0  0  0  0  0  0  0  0  0  0
    0.7145   -1.2375    0.0000 N   0  0  0  0  0  0  0  0  0  0  0  0
    0.7145   -0.4125    0.0000 C   0  0  0  0  0  0  0  0  0  0  0  0
    0.0000    0.0000    0.0000 C   0  0  0  0  0  0  0  0  0  0  0  0
   -0.7145   -0.4125    0.0000 F   0  0  0  0  0  0  0  0  0  0  0  0
    0.0000    0.8250    0.0000 C   0  0  0  0  0  0  0  0  0  0  0  0
    0.7145    1.2375    0.0000 C   0  0  0  0  0  0  0  0  0  0  0  0
    1.4289    0.8250    0.0000 C   0  0  0  0  0  0  0  0  0  0  0  0
    1.4289    0.0000    0.0000 C   0  0  0  0  0  0  0  0  0  0  0  0
    2.1434   -0.4125    0.0000 F   0  0  0  0  0  0  0  0  0  0  0  0
    3.5724   -3.7125    0.0000 C   0  0  0  0  0  0  0  0  0  0  0  0
    2.7474   -3.7125    0.0000 F   0  0  0  0  0  0  0  0  0  0  0  0
    4.3974   -3.7125    0.0000 F   0  0  0  0  0  0  0  0  0  0  0  0
    3.5724   -4.5375    0.0000 F   0  0  0  0  0  0  0  0  0  0  0  0
  1  2  1  0  0  0  0
  2  3  1  0  0  0  0
  3  4  1  0  0  0  0
  4  5  4  0  0  0  0
  5  6  4  0  0  0  0
  6  7  1  0  0  0  0
  7  8  4  0  0  0  0
  8  9  4  0  0  0  0
  9 10  1  0  0  0  0
 10 11  1  0  0  0  0
 11 12  1  0  0  0  0
 11 13  1  0  0  0  0
  9 14  4  0  0  0  0
 14 15  1  0  0  0  0
 14 16  4  0  0  0  0
  7 16  4  0  0  0  0
 16 17  2  0  0  0  0
  6 18  4  0  0  0  0
 18 19  1  0  0  0  0
 18 20  4  0  0  0  0
 20 21  4  0  0  0  0
  4 21  4  0  0  0  0
 21 22  1  0  0  0  0
 22 23  2  0  0  0  0
 22 24  1  0  0  0  0
 24 25  1  0  0  0  0
 25 26  4  0  0  0  0
 26 27  1  0  0  0  0
 26 28  4  0  0  0  0
 28 29  4  0  0  0  0
 29 30  4  0  0  0  0
 30 31  4  0  0  0  0
 25 31  4  0  0  0  0
 31 32  1  0  0  0  0
  2 33  1  0  0  0  0
 33 34  1  0  0  0  0
 33 35  1  0  0  0  0
 33 36  1  0  0  0  0
M  END
> <IC50(uM)>
3.0

> <Outcome>
0.0

> <BindingDB ID>
1098709; 972555

> <BindingDB MonomerID>
470429

> <BindingDB Ligand Name>
N-(2,6-difluorophenyl)-4-{3-[(dimethylamino)methyl]-4-methyl-5-oxo-4,5-dihydro-1H-1,2,4-triazol-1-yl}-5-fluoro-2-{[(2S)-1,1,1-trifluoropropan-2-yl]oxy}benzamide::US10815215, Example 97::US11130745, Example 97; N-(2,6-difluorophenyl)-4-{3-[(dimethylamino)methyl]-4-methyl-5-oxo-4,5-dihydro-1H-1,2,4-triazol-1-yl}-5-fluoro-2-{[(2S)-1,1,1-trifluoropropan-2-yl]oxy}benzamide::US10815215, Example 97

> <Curation/DataSource>
US Patent

> <Article DOI>
?

> <PMID>
?

> <Patent Number>
US11130745; US10815215

> <Authors>
Gradl, SN; Nguyen, D; Eis, K; Gunther, J; Stellfeld, T; Janzer, A; Christian, S; Muller, T; Sheikh, SE; Sykes, DB; Ferrara, SJ; Krober, M; Merz, C; Niehues, M; Schafer, M; Zimmermann, K; Nising, CF; Gradl, SN; Nguyen, D; Eis, K; Gunther, J; Stellfeld, T; Janzer, A; Christian, S; Muller, T; Sheikh, SE; Zhou, HJ; Zhao, C; Sykes, DB; Ferrara, SJ; Liu, K; Krober, M; Merz, C; Niehues, M; Schafer, M; Zimmermann, K; Nising, CF

> <Link to Ligand in BindingDB>
http://www.bindingdb.org/bind/chemsearch/marvin/MolStructure.jsp?monomerid=470429

> <Link to Ligand-Target Pair in BindingDB>
http://www.bindingdb.org/jsp/dbsearch/PrimarySearch_ki.jsp?energyterm=kJ/mole&tag=r21&monomerid=470429&enzyme=Dihydroorotate+dehydrogenase&column=ki&startPg=0&Increment=50&submit=Search

> <PubChem CID>
134469896

> <PubChem SID>
441609606

$$$$

  Mrv2115 07222212352D          

 35 38  0  0  0  0            999 V2000
   -5.1659    1.4455    0.0000 C   0  0  0  0  0  0  0  0  0  0  0  0
   -4.3409    1.4455    0.0000 C   0  0  0  0  0  0  0  0  0  0  0  0
   -3.9284    2.1599    0.0000 C   0  0  0  0  0  0  0  0  0  0  0  0
   -3.1034    2.1599    0.0000 C   0  0  0  0  0  0  0  0  0  0  0  0
   -2.6909    2.8744    0.0000 F   0  0  0  0  0  0  0  0  0  0  0  0
   -2.6909    1.4455    0.0000 C   0  0  0  0  0  0  0  0  0  0  0  0
   -3.1034    0.7310    0.0000 C   0  0  0  0  0  0  0  0  0  0  0  0
   -3.9284    0.7310    0.0000 C   0  0  0  0  0  0  0  0  0  0  0  0
   -4.3409    0.0165    0.0000 N   0  0  0  0  0  0  0  0  0  0  0  0
   -3.9284   -0.6979    0.0000 C   0  0  0  0  0  0  0  0  0  0  0  0
   -4.3409   -1.4124    0.0000 O   0  0  0  0  0  0  0  0  0  0  0  0
   -3.1034   -0.6979    0.0000 C   0  0  0  0  0  0  0  0  0  0  0  0
   -2.6909    0.0165    0.0000 C   0  0  0  0  0  0  0  0  0  0  0  0
   -1.8659    0.0165    0.0000 C   0  0  0  0  0  0  0  0  0  0  0  0
   -1.4534    0.7310    0.0000 Cl  0  0  0  0  0  0  0  0  0  0  0  0
   -1.4534   -0.6979    0.0000 C   0  0  0  0  0  0  0  0  0  0  0  0
   -0.6284   -0.6979    0.0000 N   0  0  0  0  0  0  0  0  0  0  0  0
   -0.1435   -1.3654    0.0000 N   0  0  0  0  0  0  0  0  0  0  0  0
    0.6411   -1.1104    0.0000 C   0  0  0  0  0  0  0  0  0  0  0  0
    0.6411   -0.2854    0.0000 N   0  0  0  0  0  0  0  0  0  0  0  0
   -0.1435   -0.0305    0.0000 C   0  0  0  0  0  0  0  0  0  0  0  0
   -0.3984    0.7541    0.0000 O   0  0  0  0  0  0  0  0  0  0  0  0
    1.3556    0.1271    0.0000 C   0  0  0  0  0  0  0  0  0  0  0  0
    2.0701   -0.2854    0.0000 C   0  0  0  0  0  0  0  0  0  0  0  0
    2.0701   -1.1104    0.0000 C   0  0  0  0  0  0  0  0  0  0  0  0
    1.3556   -1.5229    0.0000 C   0  0  0  0  0  0  0  0  0  0  0  0
   -1.8659   -1.4124    0.0000 C   0  0  0  0  0  0  0  0  0  0  0  0
   -2.6909   -1.4124    0.0000 C   0  0  0  0  0  0  0  0  0  0  0  0
   -3.1034   -2.1269    0.0000 O   0  0  0  0  0  0  0  0  0  0  0  0
   -2.6909   -2.8414    0.0000 C   0  0  0  0  0  0  0  0  0  0  0  0
   -1.8659   -2.8414    0.0000 C   0  0  0  0  0  0  0  0  0  0  0  0
   -3.1034   -3.5558    0.0000 C   0  0  0  0  0  0  0  0  0  0  0  0
   -3.8179   -3.1433    0.0000 F   0  0  0  0  0  0  0  0  0  0  0  0
   -2.3890   -3.9683    0.0000 F   0  0  0  0  0  0  0  0  0  0  0  0
   -3.5159   -4.2703    0.0000 F   0  0  0  0  0  0  0  0  0  0  0  0
  1  2  1  0  0  0  0
  2  3  4  0  0  0  0
  3  4  4  0  0  0  0
  4  5  1  0  0  0  0
  4  6  4  0  0  0  0
  6  7  4  0  0  0  0
  7  8  4  0  0  0  0
  2  8  4  0  0  0  0
  8  9  1  0  0  0  0
  9 10  1  0  0  0  0
 10 11  2  0  0  0  0
 10 12  1  0  0  0  0
 12 13  4  0  0  0  0
 13 14  4  0  0  0  0
 14 15  1  0  0  0  0
 14 16  4  0  0  0  0
 16 17  1  0  0  0  0
 17 18  4  0  0  0  0
 18 19  4  0  0  0  0
 19 20  4  0  0  0  0
 20 21  4  0  0  0  0
 17 21  4  0  0  0  0
 21 22  2  0  0  0  0
 20 23  1  0  0  0  0
 23 24  1  0  0  0  0
 24 25  1  0  0  0  0
 25 26  1  0  0  0  0
 19 26  1  0  0  0  0
 16 27  4  0  0  0  0
 27 28  4  0  0  0  0
 12 28  4  0  0  0  0
 28 29  1  0  0  0  0
 29 30  1  0  0  0  0
 30 31  1  0  0  0  0
 30 32  1  0  0  0  0
 32 33  1  0  0  0  0
 32 34  1  0  0  0  0
 32 35  1  0  0  0  0
M  END
> <IC50(uM)>
0.28

> <Outcome>
1.0

> <BindingDB ID>
1020694

> <BindingDB MonomerID>
490620

> <BindingDB Ligand Name>
5-chloro-N-(4-fluoro-2-methylphenyl)-4-(3-oxo-5,6,7,8-tetrahydro[1,2,4]triazolo[4,3-a]pyridin-2(3H)-yl)-2-{[(2S)-1,1,1-trifluoropropan-2-yl]oxy}benzamide::US10968216, Example 288

> <Curation/DataSource>
US Patent

> <Article DOI>
?

> <PMID>
?

> <Patent Number>
US10968216

> <Authors>
Gradl, SN; Nguyen, D; Eis, K; Gunther, J; Stellfeld, T; Janzer, A; Christian, S; Mueller, T; Sheikh, SE; Zhou, HJ; Zhao, C; Sykes, DB; Ferrara, SJ; Liu, K; Herbert, SA; Merz, C; Niehues, M; Nising, CF; Schafer, M; Zimmermann, K; Knablein, J; Thede, K; Faupel, T

> <Link to Ligand in BindingDB>
http://www.bindingdb.org/bind/chemsearch/marvin/MolStructure.jsp?monomerid=490620

> <Link to Ligand-Target Pair in BindingDB>
http://www.bindingdb.org/jsp/dbsearch/PrimarySearch_ki.jsp?energyterm=kJ/mole&tag=r21&monomerid=490620&enzyme=Dihydroorotate+dehydrogenase&column=ki&startPg=0&Increment=50&submit=Search

> <PubChem CID>
134474424

> <PubChem SID>
447117346

$$$$

  Mrv2115 07222212352D          

 34 38  0  0  0  0            999 V2000
    4.0668    2.3479    0.0000 C   0  0  0  0  0  0  0  0  0  0  0  0
    3.3523    1.9354    0.0000 C   0  0  0  0  0  0  0  0  0  0  0  0
    3.3523    1.1104    0.0000 C   0  0  0  0  0  0  0  0  0  0  0  0
    2.6378    0.6979    0.0000 C   0  0  0  0  0  0  0  0  0  0  0  0
    2.6378   -0.1271    0.0000 C   0  0  0  0  0  0  0  0  0  0  0  0
    1.9233   -0.5396    0.0000 O   0  0  0  0  0  0  0  0  0  0  0  0
    3.3523   -0.5396    0.0000 O   0  0  0  0  0  0  0  0  0  0  0  0
    1.9233    1.1104    0.0000 C   0  0  0  0  0  0  0  0  0  0  0  0
    1.1387    0.8555    0.0000 N   0  0  0  0  0  0  0  0  0  0  0  0
    0.6538    1.5229    0.0000 C   0  0  0  0  0  0  0  0  0  0  0  0
   -0.1712    1.5229    0.0000 C   0  0  0  0  0  0  0  0  0  0  0  0
   -0.5837    0.8085    0.0000 C   0  0  0  0  0  0  0  0  0  0  0  0
   -1.4087    0.8085    0.0000 C   0  0  0  0  0  0  0  0  0  0  0  0
   -1.8212    1.5229    0.0000 C   0  0  0  0  0  0  0  0  0  0  0  0
   -2.6462    1.5229    0.0000 C   0  0  0  0  0  0  0  0  0  0  0  0
   -3.0587    0.8085    0.0000 C   0  0  0  0  0  0  0  0  0  0  0  0
   -3.8837    0.8085    0.0000 C   0  0  0  0  0  0  0  0  0  0  0  0
   -4.2962    1.5229    0.0000 C   0  0  0  0  0  0  0  0  0  0  0  0
   -5.1212    1.5229    0.0000 O   0  0  0  0  0  0  0  0  0  0  0  0
   -5.5337    2.2374    0.0000 C   0  0  0  0  0  0  0  0  0  0  0  0
   -6.3587    2.2374    0.0000 C   0  0  0  0  0  0  0  0  0  0  0  0
   -6.7712    2.9519    0.0000 C   0  0  0  0  0  0  0  0  0  0  0  0
   -6.3587    3.6664    0.0000 C   0  0  0  0  0  0  0  0  0  0  0  0
   -5.5337    3.6664    0.0000 C   0  0  0  0  0  0  0  0  0  0  0  0
   -5.1212    2.9519    0.0000 C   0  0  0  0  0  0  0  0  0  0  0  0
   -4.2962    2.9519    0.0000 C   0  0  0  0  0  0  0  0  0  0  0  0
   -3.4712    2.9519    0.0000 N   0  0  0  0  0  0  0  0  0  0  0  0
   -3.8837    2.2374    0.0000 C   0  0  0  0  0  0  0  0  0  0  0  0
   -3.0587    2.2374    0.0000 C   0  0  0  0  0  0  0  0  0  0  0  0
   -1.4087    2.2374    0.0000 C   0  0  0  0  0  0  0  0  0  0  0  0
   -0.5837    2.2374    0.0000 C   0  0  0  0  0  0  0  0  0  0  0  0
    1.1387    2.1904    0.0000 N   0  0  0  0  0  0  0  0  0  0  0  0
    1.9233    1.9354    0.0000 C   0  0  0  0  0  0  0  0  0  0  0  0
    2.6378    2.3479    0.0000 C   0  0  0  0  0  0  0  0  0  0  0  0
  1  2  1  0  0  0  0
  2  3  4  0  0  0  0
  3  4  4  0  0  0  0
  4  5  1  0  0  0  0
  5  6  2  0  0  0  0
  5  7  1  0  0  0  0
  4  8  4  0  0  0  0
  8  9  4  0  0  0  0
  9 10  4  0  0  0  0
 10 11  1  0  0  0  0
 11 12  4  0  0  0  0
 12 13  4  0  0  0  0
 13 14  4  0  0  0  0
 14 15  1  0  0  0  0
 15 16  4  0  0  0  0
 16 17  4  0  0  0  0
 17 18  4  0  0  0  0
 18 19  1  0  0  0  0
 19 20  1  0  0  0  0
 20 21  4  0  0  0  0
 21 22  4  0  0  0  0
 22 23  4  0  0  0  0
 23 24  4  0  0  0  0
 24 25  4  0  0  0  0
 20 25  4  0  0  0  0
 25 26  1  0  0  0  0
 26 27  3  0  0  0  0
 18 28  4  0  0  0  0
 28 29  4  0  0  0  0
 15 29  4  0  0  0  0
 14 30  4  0  0  0  0
 30 31  4  0  0  0  0
 11 31  4  0  0  0  0
 10 32  4  0  0  0  0
 32 33  4  0  0  0  0
  8 33  4  0  0  0  0
 33 34  4  0  0  0  0
  2 34  4  0  0  0  0
M  STY  1   1 DAT
M  SAL   1  1  32
M  SDT   1 MRV_IMPLICIT_H                                        
M  SDD   1     0.5304   -0.4125    DR    ALL  0       0  
M  SED   1 IMPL_H1
M  END
> <IC50(uM)>
2.03

> <Outcome>
0.0

> <BindingDB ID>
297814

> <BindingDB MonomerID>
155470

> <BindingDB Ligand Name>
US9006454, I112

> <Curation/DataSource>
US Patent

> <Article DOI>
?

> <PMID>
?

> <Patent Number>
US9006454

> <Authors>
Thunuguntla, SS; Subramanya, H; Kunnam, SR; Sanivaru Vijay, SR; Bingi, C; Kusanur, R; Schwarz, M; Arlt, M

> <Link to Ligand in BindingDB>
http://www.bindingdb.org/bind/chemsearch/marvin/MolStructure.jsp?monomerid=155470

> <Link to Ligand-Target Pair in BindingDB>
http://www.bindingdb.org/jsp/dbsearch/PrimarySearch_ki.jsp?energyterm=kJ/mole&tag=r21&monomerid=155470&enzyme=Dihydroorotate+dehydrogenase&column=ki&startPg=0&Increment=50&submit=Search

> <PubChem CID>
58073774

> <PubChem SID>
253658407

$$$$

  Mrv2115 07222212352D          

 28 30  0  0  0  0            999 V2000
   -1.4087    0.0165    0.0000 C   0  0  0  0  0  0  0  0  0  0  0  0
   -0.9962   -0.6979    0.0000 C   0  0  0  0  0  0  0  0  0  0  0  0
   -0.1712   -0.6979    0.0000 C   0  0  0  0  0  0  0  0  0  0  0  0
   -0.1712   -1.5229    0.0000 F   0  0  0  0  0  0  0  0  0  0  0  0
   -0.1712    0.1271    0.0000 F   0  0  0  0  0  0  0  0  0  0  0  0
    0.6538   -0.6979    0.0000 C   0  0  0  0  0  0  0  0  0  0  0  0
    1.1387   -0.0305    0.0000 N   0  0  0  0  0  0  0  0  0  0  0  0
    1.9233   -0.2854    0.0000 C   0  0  0  0  0  0  0  0  0  0  0  0
    2.6378    0.1271    0.0000 N   0  0  0  0  0  0  0  0  0  0  0  0
    3.3523   -0.2854    0.0000 C   0  0  0  0  0  0  0  0  0  0  0  0
    4.0668    0.1271    0.0000 C   0  0  0  0  0  0  0  0  0  0  0  0
    3.3523   -1.1104    0.0000 C   0  0  0  0  0  0  0  0  0  0  0  0
    2.6378   -1.5229    0.0000 C   0  0  0  0  0  0  0  0  0  0  0  0
    2.6378   -2.3479    0.0000 N   0  0  0  0  0  0  0  0  0  0  0  0
    1.9233   -2.7604    0.0000 C   0  0  0  0  0  0  0  0  0  0  0  0
    1.9233   -3.5854    0.0000 C   0  0  0  0  0  0  0  0  0  0  0  0
    1.2089   -3.9979    0.0000 C   0  0  0  0  0  0  0  0  0  0  0  0
    0.4944   -3.5854    0.0000 C   0  0  0  0  0  0  0  0  0  0  0  0
   -0.2201   -3.9979    0.0000 S   0  0  0  0  0  0  0  0  0  0  0  0
   -0.9345   -4.4104    0.0000 F   0  0  0  0  0  0  0  0  0  0  0  0
   -0.2201   -4.8229    0.0000 F   0  0  0  0  0  0  0  0  0  0  0  0
    0.4944   -4.4104    0.0000 F   0  0  0  0  0  0  0  0  0  0  0  0
   -0.2201   -3.1729    0.0000 F   0  0  0  0  0  0  0  0  0  0  0  0
   -0.9345   -3.5854    0.0000 F   0  0  0  0  0  0  0  0  0  0  0  0
    0.4944   -2.7604    0.0000 C   0  0  0  0  0  0  0  0  0  0  0  0
    1.2089   -2.3479    0.0000 C   0  0  0  0  0  0  0  0  0  0  0  0
    1.9233   -1.1104    0.0000 N   0  0  0  0  0  0  0  0  0  0  0  0
    1.1387   -1.3654    0.0000 N   0  0  0  0  0  0  0  0  0  0  0  0
  1  2  1  0  0  0  0
  2  3  1  0  0  0  0
  3  4  1  0  0  0  0
  3  5  1  0  0  0  0
  3  6  1  0  0  0  0
  6  7  4  0  0  0  0
  7  8  4  0  0  0  0
  8  9  4  0  0  0  0
  9 10  4  0  0  0  0
 10 11  1  0  0  0  0
 10 12  4  0  0  0  0
 12 13  4  0  0  0  0
 13 14  1  0  0  0  0
 14 15  1  0  0  0  0
 15 16  4  0  0  0  0
 16 17  4  0  0  0  0
 17 18  4  0  0  0  0
 18 19  1  0  0  0  0
 19 20  1  0  0  0  0
 19 21  1  0  0  0  0
 19 22  1  0  0  0  0
 19 23  1  0  0  0  0
 19 24  1  0  0  0  0
 18 25  4  0  0  0  0
 25 26  4  0  0  0  0
 15 26  4  0  0  0  0
 13 27  4  0  0  0  0
  8 27  4  0  0  0  0
 27 28  4  0  0  0  0
  6 28  4  0  0  0  0
M  END
> <IC50(uM)>
100.0

> <Outcome>
0.0

> <BindingDB ID>
50720156

> <BindingDB MonomerID>
50365226

> <BindingDB Ligand Name>
CHEMBL1956289::US9238653, Table 5, Compound 52

> <Curation/DataSource>
ChEMBL

> <Article DOI>
10.1021/jm200592f

> <PMID>
21696174

> <Patent Number>
?

> <Authors>
Coteron, JM; Marco, M; Esquivias, J; Deng, X; White, KL; White, J; Koltun, M; El Mazouni, F; Kokkonda, S; Katneni, K; Bhamidipati, R; Shackleford, DM; Angulo-Barturen, I; Ferrer, SB; Jimenez-Diaz, MB; Gamo, FJ; Goldsmith, EJ; Charman, WN; Bathurst, I; Floyd, D; Matthews, D; Burrows, JN; Rathod, PK; Charman, SA; Phillips, MA

> <Link to Ligand in BindingDB>
http://www.bindingdb.org/bind/chemsearch/marvin/MolStructure.jsp?monomerid=50365226

> <Link to Ligand-Target Pair in BindingDB>
http://www.bindingdb.org/jsp/dbsearch/PrimarySearch_ki.jsp?energyterm=kJ/mole&tag=r21&monomerid=50365226&enzyme=Dihydroorotate+dehydrogenase&column=ki&startPg=0&Increment=50&submit=Search

> <PubChem CID>
51347543

> <PubChem SID>
136969288

$$$$

  Mrv2115 07222212352D          

 36 39  0  0  0  0            999 V2000
   -4.3409    1.4455    0.0000 C   0  0  0  0  0  0  0  0  0  0  0  0
   -5.1659    1.4455    0.0000 O   0  0  0  0  0  0  0  0  0  0  0  0
   -5.5784    0.7310    0.0000 C   0  0  0  0  0  0  0  0  0  0  0  0
   -6.4034    0.7310    0.0000 C   0  0  0  0  0  0  0  0  0  0  0  0
   -6.8159    0.0165    0.0000 C   0  0  0  0  0  0  0  0  0  0  0  0
   -6.4034   -0.6979    0.0000 C   0  0  0  0  0  0  0  0  0  0  0  0
   -5.5784   -0.6979    0.0000 C   0  0  0  0  0  0  0  0  0  0  0  0
   -5.1659   -1.4124    0.0000 C   0  0  0  0  0  0  0  0  0  0  0  0
   -5.1659    0.0165    0.0000 C   0  0  0  0  0  0  0  0  0  0  0  0
   -4.3409    0.0165    0.0000 N   0  0  0  0  0  0  0  0  0  0  0  0
   -3.9284   -0.6979    0.0000 C   0  0  0  0  0  0  0  0  0  0  0  0
   -4.3409   -1.4124    0.0000 O   0  0  0  0  0  0  0  0  0  0  0  0
   -3.1034   -0.6979    0.0000 C   0  0  0  0  0  0  0  0  0  0  0  0
   -2.6909    0.0165    0.0000 C   0  0  0  0  0  0  0  0  0  0  0  0
   -1.8659    0.0165    0.0000 C   0  0  0  0  0  0  0  0  0  0  0  0
   -1.4534    0.7310    0.0000 F   0  0  0  0  0  0  0  0  0  0  0  0
   -1.4534   -0.6979    0.0000 C   0  0  0  0  0  0  0  0  0  0  0  0
   -0.6284   -0.6979    0.0000 N   0  0  0  0  0  0  0  0  0  0  0  0
   -0.1435   -1.3654    0.0000 N   0  0  0  0  0  0  0  0  0  0  0  0
    0.6411   -1.1104    0.0000 C   0  0  0  0  0  0  0  0  0  0  0  0
    0.6411   -0.2854    0.0000 N   0  0  0  0  0  0  0  0  0  0  0  0
   -0.1435   -0.0305    0.0000 C   0  0  0  0  0  0  0  0  0  0  0  0
   -0.3984    0.7541    0.0000 O   0  0  0  0  0  0  0  0  0  0  0  0
    1.3556    0.1271    0.0000 C   0  0  0  0  0  0  0  0  0  0  0  0
    2.0701   -0.2854    0.0000 C   0  0  0  0  0  0  0  0  0  0  0  0
    2.0701   -1.1104    0.0000 C   0  0  0  0  0  0  0  0  0  0  0  0
    1.3556   -1.5229    0.0000 C   0  0  0  0  0  0  0  0  0  0  0  0
   -1.8659   -1.4124    0.0000 C   0  0  0  0  0  0  0  0  0  0  0  0
   -2.6909   -1.4124    0.0000 C   0  0  0  0  0  0  0  0  0  0  0  0
   -3.1034   -2.1269    0.0000 O   0  0  0  0  0  0  0  0  0  0  0  0
   -2.6909   -2.8414    0.0000 C   0  0  0  0  0  0  0  0  0  0  0  0
   -1.8659   -2.8414    0.0000 C   0  0  0  0  0  0  0  0  0  0  0  0
   -3.1034   -3.5558    0.0000 C   0  0  0  0  0  0  0  0  0  0  0  0
   -3.8179   -3.1433    0.0000 F   0  0  0  0  0  0  0  0  0  0  0  0
   -2.3890   -3.9683    0.0000 F   0  0  0  0  0  0  0  0  0  0  0  0
   -3.5159   -4.2703    0.0000 F   0  0  0  0  0  0  0  0  0  0  0  0
  1  2  1  0  0  0  0
  2  3  1  0  0  0  0
  3  4  4  0  0  0  0
  4  5  4  0  0  0  0
  5  6  4  0  0  0  0
  6  7  4  0  0  0  0
  7  8  1  0  0  0  0
  7  9  4  0  0  0  0
  3  9  4  0  0  0  0
  9 10  1  0  0  0  0
 10 11  1  0  0  0  0
 11 12  2  0  0  0  0
 11 13  1  0  0  0  0
 13 14  4  0  0  0  0
 14 15  4  0  0  0  0
 15 16  1  0  0  0  0
 15 17  4  0  0  0  0
 17 18  1  0  0  0  0
 18 19  4  0  0  0  0
 19 20  4  0  0  0  0
 20 21  4  0  0  0  0
 21 22  4  0  0  0  0
 18 22  4  0  0  0  0
 22 23  2  0  0  0  0
 21 24  1  0  0  0  0
 24 25  1  0  0  0  0
 25 26  1  0  0  0  0
 26 27  1  0  0  0  0
 20 27  1  0  0  0  0
 17 28  4  0  0  0  0
 28 29  4  0  0  0  0
 13 29  4  0  0  0  0
 29 30  1  0  0  0  0
 30 31  1  0  0  0  0
 31 32  1  0  0  0  0
 31 33  1  0  0  0  0
 33 34  1  0  0  0  0
 33 35  1  0  0  0  0
 33 36  1  0  0  0  0
M  END
> <IC50(uM)>
0.006

> <Outcome>
1.0

> <BindingDB ID>
1020450

> <BindingDB MonomerID>
490401

> <BindingDB Ligand Name>
5-fluoro-N-(2-methoxy-6-methylphenyl)-4-(3-oxo-5,6,7,8-tetrahydro[1,2,4]triazolo[4,3-a]pyridin-2(3H)-yl)-2-{[(2S)-1,1,1-trifluoropropan-2-yl]oxy}benzamide::US10968216, Example 69

> <Curation/DataSource>
US Patent

> <Article DOI>
?

> <PMID>
?

> <Patent Number>
US10968216

> <Authors>
Gradl, SN; Nguyen, D; Eis, K; Gunther, J; Stellfeld, T; Janzer, A; Christian, S; Mueller, T; Sheikh, SE; Zhou, HJ; Zhao, C; Sykes, DB; Ferrara, SJ; Liu, K; Herbert, SA; Merz, C; Niehues, M; Nising, CF; Schafer, M; Zimmermann, K; Knablein, J; Thede, K; Faupel, T

> <Link to Ligand in BindingDB>
http://www.bindingdb.org/bind/chemsearch/marvin/MolStructure.jsp?monomerid=490401

> <Link to Ligand-Target Pair in BindingDB>
http://www.bindingdb.org/jsp/dbsearch/PrimarySearch_ki.jsp?energyterm=kJ/mole&tag=r21&monomerid=490401&enzyme=Dihydroorotate+dehydrogenase&column=ki&startPg=0&Increment=50&submit=Search

> <PubChem CID>
142335912

> <PubChem SID>
447117128

$$$$

  Mrv2115 07222212352D          

 19 21  0  0  0  0            999 V2000
    3.2789    2.0625    0.0000 O   0  0  0  0  0  0  0  0  0  0  0  0
    3.2789    1.2375    0.0000 C   0  0  0  0  0  0  0  0  0  0  0  0
    3.9934    0.8250    0.0000 N   0  0  0  0  0  0  0  0  0  0  0  0
    3.9934    0.0000    0.0000 C   0  0  0  0  0  0  0  0  0  0  0  0
    4.7079   -0.4125    0.0000 C   0  0  0  0  0  0  0  0  0  0  0  0
    5.4223    0.0000    0.0000 C   0  0  0  0  0  0  0  0  0  0  0  0
    5.4223    0.8250    0.0000 C   0  0  0  0  0  0  0  0  0  0  0  0
    6.1368    1.2375    0.0000 C   0  0  0  0  0  0  0  0  0  0  0  0
    6.8513    0.8250    0.0000 C   0  0  0  0  0  0  0  0  0  0  0  0
    6.8513    0.0000    0.0000 C   0  0  0  0  0  0  0  0  0  0  0  0
    6.1368   -0.4125    0.0000 C   0  0  0  0  0  0  0  0  0  0  0  0
    3.2789   -0.4125    0.0000 C   0  0  0  0  0  0  0  0  0  0  0  0
    3.2789   -1.2375    0.0000 O   0  0  0  0  0  0  0  0  0  0  0  0
    2.5645    0.0000    0.0000 N   0  0  0  0  0  0  0  0  0  0  0  0
    1.7798   -0.2549    0.0000 C   0  0  0  0  0  0  0  0  0  0  0  0
    1.2949    0.4125    0.0000 C   0  0  0  0  0  0  0  0  0  0  0  0
    0.4699    0.4125    0.0000 O   0  0  0  0  0  0  0  0  0  0  0  0
    1.7798    1.0799    0.0000 C   0  0  0  0  0  0  0  0  0  0  0  0
    2.5645    0.8250    0.0000 C   0  0  0  0  0  0  0  0  0  0  0  0
  1  2  2  0  0  0  0
  2  3  1  0  0  0  0
  3  4  1  0  0  0  0
  4  5  1  0  0  0  0
  5  6  1  0  0  0  0
  6  7  4  0  0  0  0
  7  8  4  0  0  0  0
  8  9  4  0  0  0  0
  9 10  4  0  0  0  0
 10 11  4  0  0  0  0
  6 11  4  0  0  0  0
  4 12  1  0  0  0  0
 12 13  2  0  0  0  0
 12 14  1  0  0  0  0
 14 15  1  0  0  0  0
 15 16  1  0  0  0  0
 16 17  1  0  0  0  0
 16 18  1  0  0  0  0
 18 19  1  0  0  0  0
  2 19  1  0  0  0  0
 14 19  1  0  0  0  0
M  END
> <IC50(uM)>
0.773

> <Outcome>
1.0

> <BindingDB ID>
306822

> <BindingDB MonomerID>
163707

> <BindingDB Ligand Name>
Cyclo L-OH-Pro-L-Phe (Fr. 1-4)

> <Curation/DataSource>
Curated from the literature by BindingDB

> <Article DOI>
10.1111/cbdd.12530

> <PMID>
25626527

> <Patent Number>
?

> <Authors>
Jiang, L; Wen, H; Shao, Y; Yu, R; Liu, Z; Wang, S; Wang, Q; Zhao, X; Zhang, P; Tao, Y; Mei, L

> <Link to Ligand in BindingDB>
http://www.bindingdb.org/bind/chemsearch/marvin/MolStructure.jsp?monomerid=163707

> <Link to Ligand-Target Pair in BindingDB>
http://www.bindingdb.org/jsp/dbsearch/PrimarySearch_ki.jsp?energyterm=kJ/mole&tag=r21&monomerid=163707&enzyme=Dihydroorotate+dehydrogenase&column=ki&startPg=0&Increment=50&submit=Search

> <PubChem CID>
10467786

> <PubChem SID>
311419058

$$$$

  Mrv2115 07222212352D          

 35 39  0  0  0  0            999 V2000
    4.0668    2.3479    0.0000 C   0  0  0  0  0  0  0  0  0  0  0  0
    3.3523    1.9354    0.0000 C   0  0  0  0  0  0  0  0  0  0  0  0
    3.3523    1.1104    0.0000 C   0  0  0  0  0  0  0  0  0  0  0  0
    2.6378    0.6979    0.0000 C   0  0  0  0  0  0  0  0  0  0  0  0
    2.6378   -0.1271    0.0000 C   0  0  0  0  0  0  0  0  0  0  0  0
    1.9233   -0.5396    0.0000 O   0  0  0  0  0  0  0  0  0  0  0  0
    3.3523   -0.5396    0.0000 O   0  0  0  0  0  0  0  0  0  0  0  0
    1.9233    1.1104    0.0000 C   0  0  0  0  0  0  0  0  0  0  0  0
    1.1387    0.8555    0.0000 N   0  0  0  0  0  0  0  0  0  0  0  0
    0.6538    1.5229    0.0000 C   0  0  0  0  0  0  0  0  0  0  0  0
   -0.1712    1.5229    0.0000 C   0  0  0  0  0  0  0  0  0  0  0  0
   -0.5837    0.8085    0.0000 C   0  0  0  0  0  0  0  0  0  0  0  0
   -1.4087    0.8085    0.0000 C   0  0  0  0  0  0  0  0  0  0  0  0
   -1.8212    1.5229    0.0000 C   0  0  0  0  0  0  0  0  0  0  0  0
   -2.6462    1.5229    0.0000 C   0  0  0  0  0  0  0  0  0  0  0  0
   -3.0587    0.8085    0.0000 C   0  0  0  0  0  0  0  0  0  0  0  0
   -3.8837    0.8085    0.0000 C   0  0  0  0  0  0  0  0  0  0  0  0
   -4.2962    1.5229    0.0000 C   0  0  0  0  0  0  0  0  0  0  0  0
   -5.1212    1.5229    0.0000 O   0  0  0  0  0  0  0  0  0  0  0  0
   -5.5337    0.8085    0.0000 C   0  0  0  0  0  0  0  0  0  0  0  0
   -6.3587    0.8085    0.0000 C   0  0  0  0  0  0  0  0  0  0  0  0
   -6.7712    0.0940    0.0000 C   0  0  0  0  0  0  0  0  0  0  0  0
   -7.5962    0.0940    0.0000 N   0  0  0  0  0  0  0  0  0  0  0  0
   -8.0087   -0.6205    0.0000 C   0  0  0  0  0  0  0  0  0  0  0  0
   -8.8337   -0.6205    0.0000 C   0  0  0  0  0  0  0  0  0  0  0  0
   -9.2462    0.0940    0.0000 O   0  0  0  0  0  0  0  0  0  0  0  0
   -8.8337    0.8085    0.0000 C   0  0  0  0  0  0  0  0  0  0  0  0
   -8.0087    0.8085    0.0000 C   0  0  0  0  0  0  0  0  0  0  0  0
   -3.8837    2.2374    0.0000 C   0  0  0  0  0  0  0  0  0  0  0  0
   -3.0587    2.2374    0.0000 C   0  0  0  0  0  0  0  0  0  0  0  0
   -1.4087    2.2374    0.0000 C   0  0  0  0  0  0  0  0  0  0  0  0
   -0.5837    2.2374    0.0000 C   0  0  0  0  0  0  0  0  0  0  0  0
    1.1387    2.1904    0.0000 N   0  0  0  0  0  0  0  0  0  0  0  0
    1.9233    1.9354    0.0000 C   0  0  0  0  0  0  0  0  0  0  0  0
    2.6378    2.3479    0.0000 C   0  0  0  0  0  0  0  0  0  0  0  0
  1  2  1  0  0  0  0
  2  3  4  0  0  0  0
  3  4  4  0  0  0  0
  4  5  1  0  0  0  0
  5  6  2  0  0  0  0
  5  7  1  0  0  0  0
  4  8  4  0  0  0  0
  8  9  4  0  0  0  0
  9 10  4  0  0  0  0
 10 11  1  0  0  0  0
 11 12  4  0  0  0  0
 12 13  4  0  0  0  0
 13 14  4  0  0  0  0
 14 15  1  0  0  0  0
 15 16  4  0  0  0  0
 16 17  4  0  0  0  0
 17 18  4  0  0  0  0
 18 19  1  0  0  0  0
 19 20  1  0  0  0  0
 20 21  1  0  0  0  0
 21 22  1  0  0  0  0
 22 23  1  0  0  0  0
 23 24  1  0  0  0  0
 24 25  1  0  0  0  0
 25 26  1  0  0  0  0
 26 27  1  0  0  0  0
 27 28  1  0  0  0  0
 23 28  1  0  0  0  0
 18 29  4  0  0  0  0
 29 30  4  0  0  0  0
 15 30  4  0  0  0  0
 14 31  4  0  0  0  0
 31 32  4  0  0  0  0
 11 32  4  0  0  0  0
 10 33  4  0  0  0  0
 33 34  4  0  0  0  0
  8 34  4  0  0  0  0
 34 35  4  0  0  0  0
  2 35  4  0  0  0  0
M  STY  1   1 DAT
M  SAL   1  1  33
M  SDT   1 MRV_IMPLICIT_H                                        
M  SDD   1     0.5304   -0.4125    DR    ALL  0       0  
M  SED   1 IMPL_H1
M  END
> <IC50(uM)>
3.023

> <Outcome>
0.0

> <BindingDB ID>
297789

> <BindingDB MonomerID>
155445

> <BindingDB Ligand Name>
US9006454, I87

> <Curation/DataSource>
US Patent

> <Article DOI>
?

> <PMID>
?

> <Patent Number>
US9006454

> <Authors>
Thunuguntla, SS; Subramanya, H; Kunnam, SR; Sanivaru Vijay, SR; Bingi, C; Kusanur, R; Schwarz, M; Arlt, M

> <Link to Ligand in BindingDB>
http://www.bindingdb.org/bind/chemsearch/marvin/MolStructure.jsp?monomerid=155445

> <Link to Ligand-Target Pair in BindingDB>
http://www.bindingdb.org/jsp/dbsearch/PrimarySearch_ki.jsp?energyterm=kJ/mole&tag=r21&monomerid=155445&enzyme=Dihydroorotate+dehydrogenase&column=ki&startPg=0&Increment=50&submit=Search

> <PubChem CID>
58073750

> <PubChem SID>
253658382

$$$$

  Mrv2115 07222212352D          

 24 26  0  0  0  0            999 V2000
   -0.2934    4.1250    0.0000 F   0  0  0  0  0  0  0  0  0  0  0  0
    0.4210    3.7125    0.0000 C   0  0  0  0  0  0  0  0  0  0  0  0
    0.0085    2.9980    0.0000 F   0  0  0  0  0  0  0  0  0  0  0  0
    0.8335    4.4270    0.0000 F   0  0  0  0  0  0  0  0  0  0  0  0
    1.1355    3.3000    0.0000 C   0  0  0  0  0  0  0  0  0  0  0  0
    1.8500    3.7125    0.0000 C   0  0  0  0  0  0  0  0  0  0  0  0
    2.5645    3.3000    0.0000 C   0  0  0  0  0  0  0  0  0  0  0  0
    2.5645    2.4750    0.0000 C   0  0  0  0  0  0  0  0  0  0  0  0
    3.2789    2.0625    0.0000 N   0  0  0  0  0  0  0  0  0  0  0  0
    3.2789    1.2375    0.0000 C   0  0  0  0  0  0  0  0  0  0  0  0
    3.9934    0.8250    0.0000 C   0  0  0  0  0  0  0  0  0  0  0  0
    3.9934    0.0000    0.0000 C   0  0  0  0  0  0  0  0  0  0  0  0
    4.7079   -0.4125    0.0000 C   0  0  0  0  0  0  0  0  0  0  0  0
    5.4223   -0.8250    0.0000 F   0  0  0  0  0  0  0  0  0  0  0  0
    4.2954   -1.1270    0.0000 F   0  0  0  0  0  0  0  0  0  0  0  0
    5.1204    0.3020    0.0000 F   0  0  0  0  0  0  0  0  0  0  0  0
    3.2789   -0.4125    0.0000 N   0  0  0  0  0  0  0  0  0  0  0  0
    2.5645    0.0000    0.0000 C   0  0  0  0  0  0  0  0  0  0  0  0
    1.7798   -0.2549    0.0000 N   0  0  0  0  0  0  0  0  0  0  0  0
    1.2949    0.4125    0.0000 C   0  0  0  0  0  0  0  0  0  0  0  0
    1.7798    1.0799    0.0000 N   0  0  0  0  0  0  0  0  0  0  0  0
    2.5645    0.8250    0.0000 N   0  0  0  0  0  0  0  0  0  0  0  0
    1.8500    2.0625    0.0000 C   0  0  0  0  0  0  0  0  0  0  0  0
    1.1355    2.4750    0.0000 C   0  0  0  0  0  0  0  0  0  0  0  0
  1  2  1  0  0  0  0
  2  3  1  0  0  0  0
  2  4  1  0  0  0  0
  2  5  1  0  0  0  0
  5  6  4  0  0  0  0
  6  7  4  0  0  0  0
  7  8  4  0  0  0  0
  8  9  1  0  0  0  0
  9 10  1  0  0  0  0
 10 11  4  0  0  0  0
 11 12  4  0  0  0  0
 12 13  1  0  0  0  0
 13 14  1  0  0  0  0
 13 15  1  0  0  0  0
 13 16  1  0  0  0  0
 12 17  4  0  0  0  0
 17 18  4  0  0  0  0
 18 19  4  0  0  0  0
 19 20  4  0  0  0  0
 20 21  4  0  0  0  0
 21 22  4  0  0  0  0
 10 22  4  0  0  0  0
 18 22  4  0  0  0  0
  8 23  4  0  0  0  0
 23 24  4  0  0  0  0
  5 24  4  0  0  0  0
M  END
> <IC50(uM)>
100.0

> <Outcome>
0.0

> <BindingDB ID>
50643196

> <BindingDB MonomerID>
50345435

> <BindingDB Ligand Name>
5-(Trifluoromethyl)-N-(4-trifluoromethyl)phenyl)-[1,2,4]triazolo[1,5-a]pyrimidin-7-amine::CHEMBL1784712::US9238653, Table 5, Compound 39

> <Curation/DataSource>
ChEMBL

> <Article DOI>
10.1021/jm200265b

> <PMID>
21517059

> <Patent Number>
?

> <Authors>
Gujjar, R; El Mazouni, F; White, KL; White, J; Creason, S; Shackleford, DM; Deng, X; Charman, WN; Bathurst, I; Burrows, J; Floyd, DM; Matthews, D; Buckner, FS; Charman, SA; Phillips, MA; Rathod, PK

> <Link to Ligand in BindingDB>
http://www.bindingdb.org/bind/chemsearch/marvin/MolStructure.jsp?monomerid=50345435

> <Link to Ligand-Target Pair in BindingDB>
http://www.bindingdb.org/jsp/dbsearch/PrimarySearch_ki.jsp?energyterm=kJ/mole&tag=r21&monomerid=50345435&enzyme=Dihydroorotate+dehydrogenase&column=ki&startPg=0&Increment=50&submit=Search

> <PubChem CID>
51347393

> <PubChem SID>
131348371

$$$$

  Mrv2115 07222212352D          

 22 24  0  0  0  0            999 V2000
    2.1434   -2.8875    0.0000 O   0  0  0  0  0  0  0  0  0  0  0  0
    1.4289   -2.4750    0.0000 C   0  0  0  0  0  0  0  0  0  0  0  0
    0.7145   -2.8875    0.0000 O   0  0  0  0  0  0  0  0  0  0  0  0
    1.4289   -1.6500    0.0000 C   0  0  0  0  0  0  0  0  0  0  0  0
    0.7145   -1.2375    0.0000 C   0  0  0  0  0  0  0  0  0  0  0  0
    0.0000   -1.6500    0.0000 O   0  0  0  0  0  0  0  0  0  0  0  0
    0.7145   -0.4125    0.0000 C   0  0  0  0  0  0  0  0  0  0  0  0
    0.0000    0.0000    0.0000 C   0  0  0  0  0  0  0  0  0  0  0  0
   -0.7145   -0.4125    0.0000 C   0  0  0  0  0  0  0  0  0  0  0  0
   -1.4289    0.0000    0.0000 C   0  0  0  0  0  0  0  0  0  0  0  0
   -1.4289    0.8250    0.0000 C   0  0  0  0  0  0  0  0  0  0  0  0
   -2.1434    1.2375    0.0000 Cl  0  0  0  0  0  0  0  0  0  0  0  0
   -0.7145    1.2375    0.0000 C   0  0  0  0  0  0  0  0  0  0  0  0
    0.0000    0.8250    0.0000 C   0  0  0  0  0  0  0  0  0  0  0  0
    1.4289    0.0000    0.0000 N   0  0  0  0  0  0  0  0  0  0  0  0
    2.1434   -0.4125    0.0000 C   0  0  0  0  0  0  0  0  0  0  0  0
    2.8579    0.0000    0.0000 C   0  0  0  0  0  0  0  0  0  0  0  0
    3.5724   -0.4125    0.0000 C   0  0  0  0  0  0  0  0  0  0  0  0
    3.5724   -1.2375    0.0000 C   0  0  0  0  0  0  0  0  0  0  0  0
    4.2868   -1.6500    0.0000 Br  0  0  0  0  0  0  0  0  0  0  0  0
    2.8579   -1.6500    0.0000 C   0  0  0  0  0  0  0  0  0  0  0  0
    2.1434   -1.2375    0.0000 C   0  0  0  0  0  0  0  0  0  0  0  0
  1  2  2  0  0  0  0
  2  3  1  0  0  0  0
  2  4  1  0  0  0  0
  4  5  4  0  0  0  0
  5  6  1  0  0  0  0
  5  7  4  0  0  0  0
  7  8  1  0  0  0  0
  8  9  4  0  0  0  0
  9 10  4  0  0  0  0
 10 11  4  0  0  0  0
 11 12  1  0  0  0  0
 11 13  4  0  0  0  0
 13 14  4  0  0  0  0
  8 14  4  0  0  0  0
  7 15  4  0  0  0  0
 15 16  4  0  0  0  0
 16 17  4  0  0  0  0
 17 18  4  0  0  0  0
 18 19  4  0  0  0  0
 19 20  1  0  0  0  0
 19 21  4  0  0  0  0
 21 22  4  0  0  0  0
  4 22  4  0  0  0  0
 16 22  4  0  0  0  0
M  END
> <IC50(uM)>
0.211

> <Outcome>
1.0

> <BindingDB ID>
50841882

> <BindingDB MonomerID>
50201900

> <BindingDB Ligand Name>
6-bromo-2-(4-chlorophenyl)-3-hydroxyquinoline-4-carboxylicacid::CHEMBL218700

> <Curation/DataSource>
ChEMBL

> <Article DOI>
10.1021/jm0602256

> <PMID>
17201408

> <Patent Number>
?

> <Authors>
Kaila, N; Janz, K; DeBernardo, S; Bedard, PW; Camphausen, RT; Tam, S; Tsao, DH; Keith, JC; Nickerson-Nutter, C; Shilling, A; Young-Sciame, R; Wang, Q

> <Link to Ligand in BindingDB>
http://www.bindingdb.org/bind/chemsearch/marvin/MolStructure.jsp?monomerid=50201900

> <Link to Ligand-Target Pair in BindingDB>
http://www.bindingdb.org/jsp/dbsearch/PrimarySearch_ki.jsp?energyterm=kJ/mole&tag=r21&monomerid=50201900&enzyme=Dihydroorotate+dehydrogenase&column=ki&startPg=0&Increment=50&submit=Search

> <PubChem CID>
14498163

> <PubChem SID>
104081551

$$$$

  Mrv2115 07222212352D          

 25 27  0  0  0  0            999 V2000
    4.2340   -0.1857    0.0000 C   0  0  0  0  0  0  0  0  0  0  0  0
    3.7490   -0.8531    0.0000 C   0  0  0  0  0  0  0  0  0  0  0  0
    4.0040   -1.6377    0.0000 N   0  0  0  0  0  0  0  0  0  0  0  0
    3.3365   -2.1227    0.0000 C   0  0  0  0  0  0  0  0  0  0  0  0
    3.3365   -2.9477    0.0000 C   0  0  0  0  0  0  0  0  0  0  0  0
    2.6221   -3.3602    0.0000 O   0  0  0  0  0  0  0  0  0  0  0  0
    4.0510   -3.3602    0.0000 N   0  0  0  0  0  0  0  0  0  0  0  0
    4.0510   -4.1852    0.0000 C   0  0  0  0  0  0  0  0  0  0  0  0
    4.6344   -4.7685    0.0000 C   0  0  0  0  0  0  0  0  0  0  0  0
    4.0510   -5.3519    0.0000 C   0  0  0  0  0  0  0  0  0  0  0  0
    3.4677   -4.7685    0.0000 C   0  0  0  0  0  0  0  0  0  0  0  0
    2.6691   -1.6377    0.0000 C   0  0  0  0  0  0  0  0  0  0  0  0
    1.8845   -1.8927    0.0000 C   0  0  0  0  0  0  0  0  0  0  0  0
    2.9240   -0.8531    0.0000 C   0  0  0  0  0  0  0  0  0  0  0  0
    2.4391   -0.1857    0.0000 C   0  0  0  0  0  0  0  0  0  0  0  0
    2.7747    0.5680    0.0000 C   0  0  0  0  0  0  0  0  0  0  0  0
    2.2898    1.2354    0.0000 C   0  0  0  0  0  0  0  0  0  0  0  0
    2.6253    1.9891    0.0000 C   0  0  0  0  0  0  0  0  0  0  0  0
    3.4458    2.0753    0.0000 C   0  0  0  0  0  0  0  0  0  0  0  0
    3.7814    2.8290    0.0000 C   0  0  0  0  0  0  0  0  0  0  0  0
    4.1169    3.5827    0.0000 F   0  0  0  0  0  0  0  0  0  0  0  0
    4.5350    2.4935    0.0000 F   0  0  0  0  0  0  0  0  0  0  0  0
    3.0277    3.1646    0.0000 F   0  0  0  0  0  0  0  0  0  0  0  0
    3.9307    1.4079    0.0000 C   0  0  0  0  0  0  0  0  0  0  0  0
    3.5952    0.6542    0.0000 N   0  0  0  0  0  0  0  0  0  0  0  0
  1  2  1  0  0  0  0
  2  3  4  0  0  0  0
  3  4  4  0  0  0  0
  4  5  1  0  0  0  0
  5  6  2  0  0  0  0
  5  7  1  0  0  0  0
  7  8  1  0  0  0  0
  8  9  1  0  0  0  0
  9 10  1  0  0  0  0
 10 11  1  0  0  0  0
  8 11  1  0  0  0  0
  4 12  4  0  0  0  0
 12 13  1  0  0  0  0
 12 14  4  0  0  0  0
  2 14  4  0  0  0  0
 14 15  1  0  0  0  0
 15 16  1  0  0  0  0
 16 17  4  0  0  0  0
 17 18  4  0  0  0  0
 18 19  4  0  0  0  0
 19 20  1  0  0  0  0
 20 21  1  0  0  0  0
 20 22  1  0  0  0  0
 20 23  1  0  0  0  0
 19 24  4  0  0  0  0
 24 25  4  0  0  0  0
 16 25  4  0  0  0  0
M  STY  1   1 DAT
M  SAL   1  1   3
M  SDT   1 MRV_IMPLICIT_H                                        
M  SDD   1     0.5304   -0.4125    DR    ALL  0       0  
M  SED   1 IMPL_H1
M  END
> <IC50(uM)>
100.0

> <Outcome>
0.0

> <BindingDB ID>
51330093

> <BindingDB MonomerID>
50538341

> <BindingDB Ligand Name>
CHEMBL4633597

> <Curation/DataSource>
ChEMBL

> <Article DOI>
10.1021/acs.jmedchem.0c00311

> <PMID>
32248693

> <Patent Number>
?

> <Authors>
Kokkonda, S; Deng, X; White, KL; El Mazouni, F; White, J; Shackleford, DM; Katneni, K; Chiu, FCK; Barker, H; McLaren, J; Crighton, E; Chen, G; Angulo-Barturen, I; Jimenez-Diaz, MB; Ferrer, S; Huertas-Valentin, L; Martinez-Martinez, MS; Lafuente-Monasterio, MJ; Chittimalla, R; Shahi, SP; Wittlin, S; Waterson, D; Burrows, JN; Matthews, D; Tomchick, D; Rathod, PK; Palmer, MJ; Charman, SA; Phillips, MA

> <Link to Ligand in BindingDB>
http://www.bindingdb.org/bind/chemsearch/marvin/MolStructure.jsp?monomerid=50538341

> <Link to Ligand-Target Pair in BindingDB>
http://www.bindingdb.org/jsp/dbsearch/PrimarySearch_ki.jsp?energyterm=kJ/mole&tag=r21&monomerid=50538341&enzyme=Dihydroorotate+dehydrogenase&column=ki&startPg=0&Increment=50&submit=Search

> <PubChem CID>
156010099

> <PubChem SID>
442139904

$$$$

  Mrv2115 07222212352D          

 34 37  0  0  0  0            999 V2000
   -0.6284    2.1599    0.0000 C   0  0  0  0  0  0  0  0  0  0  0  0
   -1.4534    2.1599    0.0000 C   0  0  0  0  0  0  0  0  0  0  0  0
   -1.8659    1.4455    0.0000 C   0  0  0  0  0  0  0  0  0  0  0  0
   -2.6909    1.4455    0.0000 C   0  0  0  0  0  0  0  0  0  0  0  0
   -3.1034    2.1599    0.0000 C   0  0  0  0  0  0  0  0  0  0  0  0
   -3.1034    0.7310    0.0000 O   0  0  0  0  0  0  0  0  0  0  0  0
   -2.6909    0.0165    0.0000 C   0  0  0  0  0  0  0  0  0  0  0  0
   -1.8659    0.0165    0.0000 C   0  0  0  0  0  0  0  0  0  0  0  0
   -1.4534   -0.6979    0.0000 C   0  0  0  0  0  0  0  0  0  0  0  0
   -0.6284   -0.6979    0.0000 N   0  0  0  0  0  0  0  0  0  0  0  0
   -0.1435   -1.3654    0.0000 N   0  0  0  0  0  0  0  0  0  0  0  0
    0.6411   -1.1104    0.0000 C   0  0  0  0  0  0  0  0  0  0  0  0
    0.6411   -0.2854    0.0000 N   0  0  0  0  0  0  0  0  0  0  0  0
   -0.1435   -0.0305    0.0000 C   0  0  0  0  0  0  0  0  0  0  0  0
   -0.3984    0.7541    0.0000 O   0  0  0  0  0  0  0  0  0  0  0  0
    1.3556    0.1271    0.0000 C   0  0  0  0  0  0  0  0  0  0  0  0
    2.0701   -0.2854    0.0000 C   0  0  0  0  0  0  0  0  0  0  0  0
    2.0701   -1.1104    0.0000 C   0  0  0  0  0  0  0  0  0  0  0  0
    1.3556   -1.5229    0.0000 C   0  0  0  0  0  0  0  0  0  0  0  0
   -1.8659   -1.4124    0.0000 C   0  0  0  0  0  0  0  0  0  0  0  0
   -1.4534   -2.1269    0.0000 F   0  0  0  0  0  0  0  0  0  0  0  0
   -2.6909   -1.4124    0.0000 C   0  0  0  0  0  0  0  0  0  0  0  0
   -3.1034   -0.6979    0.0000 C   0  0  0  0  0  0  0  0  0  0  0  0
   -3.9284   -0.6979    0.0000 C   0  0  0  0  0  0  0  0  0  0  0  0
   -4.3409    0.0165    0.0000 O   0  0  0  0  0  0  0  0  0  0  0  0
   -4.3409   -1.4124    0.0000 N   0  0  0  0  0  0  0  0  0  0  0  0
   -5.1659   -1.4124    0.0000 C   0  0  0  0  0  0  0  0  0  0  0  0
   -5.5784   -0.6979    0.0000 C   0  0  0  0  0  0  0  0  0  0  0  0
   -5.1659    0.0165    0.0000 C   0  0  0  0  0  0  0  0  0  0  0  0
   -6.4034   -0.6979    0.0000 C   0  0  0  0  0  0  0  0  0  0  0  0
   -6.8159   -1.4124    0.0000 C   0  0  0  0  0  0  0  0  0  0  0  0
   -6.4034   -2.1269    0.0000 C   0  0  0  0  0  0  0  0  0  0  0  0
   -5.5784   -2.1269    0.0000 C   0  0  0  0  0  0  0  0  0  0  0  0
   -5.1659   -2.8414    0.0000 F   0  0  0  0  0  0  0  0  0  0  0  0
  1  2  1  0  0  0  0
  2  3  1  0  0  0  0
  3  4  1  0  0  0  0
  4  5  1  0  0  0  0
  4  6  1  0  0  0  0
  6  7  1  0  0  0  0
  7  8  4  0  0  0  0
  8  9  4  0  0  0  0
  9 10  1  0  0  0  0
 10 11  4  0  0  0  0
 11 12  4  0  0  0  0
 12 13  4  0  0  0  0
 13 14  4  0  0  0  0
 10 14  4  0  0  0  0
 14 15  2  0  0  0  0
 13 16  1  0  0  0  0
 16 17  1  0  0  0  0
 17 18  1  0  0  0  0
 18 19  1  0  0  0  0
 12 19  1  0  0  0  0
  9 20  4  0  0  0  0
 20 21  1  0  0  0  0
 20 22  4  0  0  0  0
 22 23  4  0  0  0  0
  7 23  4  0  0  0  0
 23 24  1  0  0  0  0
 24 25  2  0  0  0  0
 24 26  1  0  0  0  0
 26 27  1  0  0  0  0
 27 28  4  0  0  0  0
 28 29  1  0  0  0  0
 28 30  4  0  0  0  0
 30 31  4  0  0  0  0
 31 32  4  0  0  0  0
 32 33  4  0  0  0  0
 27 33  4  0  0  0  0
 33 34  1  0  0  0  0
M  END
> <IC50(uM)>
0.024625

> <Outcome>
1.0

> <BindingDB ID>
1020407; 1020406

> <BindingDB MonomerID>
490360

> <BindingDB Ligand Name>
5-fluoro-N-(2-fluoro-6-methylphenyl)-4-(3-oxo-5,6,7,8-tetrahydro[1,2,4]triazolo[4,3-a]pyridin-2(3H)-yl)-2-[(2S)-pentan-2-yloxy]benzamide::US10968216, Example 28

> <Curation/DataSource>
US Patent

> <Article DOI>
?

> <PMID>
?

> <Patent Number>
US10968216

> <Authors>
Gradl, SN; Nguyen, D; Eis, K; Gunther, J; Stellfeld, T; Janzer, A; Christian, S; Mueller, T; Sheikh, SE; Zhou, HJ; Zhao, C; Sykes, DB; Ferrara, SJ; Liu, K; Herbert, SA; Merz, C; Niehues, M; Nising, CF; Schafer, M; Zimmermann, K; Knablein, J; Thede, K; Faupel, T

> <Link to Ligand in BindingDB>
http://www.bindingdb.org/bind/chemsearch/marvin/MolStructure.jsp?monomerid=490360

> <Link to Ligand-Target Pair in BindingDB>
http://www.bindingdb.org/jsp/dbsearch/PrimarySearch_ki.jsp?energyterm=kJ/mole&tag=r21&monomerid=490360&enzyme=Dihydroorotate+dehydrogenase&column=ki&startPg=0&Increment=50&submit=Search

> <PubChem CID>
134473908

> <PubChem SID>
447117087

$$$$

  Mrv2115 07222212352D          

 35 38  0  0  0  0            999 V2000
   -3.1034    2.1599    0.0000 C   0  0  0  0  0  0  0  0  0  0  0  0
   -2.6909    1.4455    0.0000 C   0  0  0  0  0  0  0  0  0  0  0  0
   -3.1034    0.7310    0.0000 O   0  0  0  0  0  0  0  0  0  0  0  0
   -2.6909    0.0165    0.0000 C   0  0  0  0  0  0  0  0  0  0  0  0
   -1.8659    0.0165    0.0000 C   0  0  0  0  0  0  0  0  0  0  0  0
   -1.4534   -0.6979    0.0000 C   0  0  0  0  0  0  0  0  0  0  0  0
   -0.6284   -0.6979    0.0000 N   0  0  0  0  0  0  0  0  0  0  0  0
   -0.1435   -1.3654    0.0000 N   0  0  0  0  0  0  0  0  0  0  0  0
    0.6411   -1.1104    0.0000 C   0  0  0  0  0  0  0  0  0  0  0  0
    0.6411   -0.2854    0.0000 N   0  0  0  0  0  0  0  0  0  0  0  0
   -0.1435   -0.0305    0.0000 C   0  0  0  0  0  0  0  0  0  0  0  0
   -0.3984    0.7541    0.0000 O   0  0  0  0  0  0  0  0  0  0  0  0
    1.3556    0.1271    0.0000 C   0  0  0  0  0  0  0  0  0  0  0  0
    2.0701   -0.2854    0.0000 C   0  0  0  0  0  0  0  0  0  0  0  0
    2.0701   -1.1104    0.0000 C   0  0  0  0  0  0  0  0  0  0  0  0
    1.3556   -1.5229    0.0000 C   0  0  0  0  0  0  0  0  0  0  0  0
   -1.8659   -1.4124    0.0000 C   0  0  0  0  0  0  0  0  0  0  0  0
   -1.4534   -2.1269    0.0000 F   0  0  0  0  0  0  0  0  0  0  0  0
   -2.6909   -1.4124    0.0000 C   0  0  0  0  0  0  0  0  0  0  0  0
   -3.1034   -0.6979    0.0000 C   0  0  0  0  0  0  0  0  0  0  0  0
   -3.9284   -0.6979    0.0000 C   0  0  0  0  0  0  0  0  0  0  0  0
   -4.3409    0.0165    0.0000 O   0  0  0  0  0  0  0  0  0  0  0  0
   -4.3409   -1.4124    0.0000 N   0  0  0  0  0  0  0  0  0  0  0  0
   -5.1659   -1.4124    0.0000 C   0  0  0  0  0  0  0  0  0  0  0  0
   -5.5784   -2.1269    0.0000 C   0  0  0  0  0  0  0  0  0  0  0  0
   -5.1659   -2.8414    0.0000 Cl  0  0  0  0  0  0  0  0  0  0  0  0
   -6.4034   -2.1269    0.0000 C   0  0  0  0  0  0  0  0  0  0  0  0
   -6.8159   -1.4124    0.0000 C   0  0  0  0  0  0  0  0  0  0  0  0
   -6.4034   -0.6979    0.0000 C   0  0  0  0  0  0  0  0  0  0  0  0
   -5.5784   -0.6979    0.0000 C   0  0  0  0  0  0  0  0  0  0  0  0
   -5.1659    0.0165    0.0000 Cl  0  0  0  0  0  0  0  0  0  0  0  0
   -1.8659    1.4455    0.0000 C   0  0  0  0  0  0  0  0  0  0  0  0
   -1.8659    0.6205    0.0000 F   0  0  0  0  0  0  0  0  0  0  0  0
   -1.8659    2.2705    0.0000 F   0  0  0  0  0  0  0  0  0  0  0  0
   -1.0409    1.4455    0.0000 F   0  0  0  0  0  0  0  0  0  0  0  0
  1  2  1  0  0  0  0
  2  3  1  0  0  0  0
  3  4  1  0  0  0  0
  4  5  4  0  0  0  0
  5  6  4  0  0  0  0
  6  7  1  0  0  0  0
  7  8  4  0  0  0  0
  8  9  4  0  0  0  0
  9 10  4  0  0  0  0
 10 11  4  0  0  0  0
  7 11  4  0  0  0  0
 11 12  2  0  0  0  0
 10 13  1  0  0  0  0
 13 14  1  0  0  0  0
 14 15  1  0  0  0  0
 15 16  1  0  0  0  0
  9 16  1  0  0  0  0
  6 17  4  0  0  0  0
 17 18  1  0  0  0  0
 17 19  4  0  0  0  0
 19 20  4  0  0  0  0
  4 20  4  0  0  0  0
 20 21  1  0  0  0  0
 21 22  2  0  0  0  0
 21 23  1  0  0  0  0
 23 24  1  0  0  0  0
 24 25  4  0  0  0  0
 25 26  1  0  0  0  0
 25 27  4  0  0  0  0
 27 28  4  0  0  0  0
 28 29  4  0  0  0  0
 29 30  4  0  0  0  0
 24 30  4  0  0  0  0
 30 31  1  0  0  0  0
  2 32  1  0  0  0  0
 32 33  1  0  0  0  0
 32 34  1  0  0  0  0
 32 35  1  0  0  0  0
M  END
> <IC50(uM)>
0.005

> <Outcome>
1.0

> <BindingDB ID>
1020463

> <BindingDB MonomerID>
490411

> <BindingDB Ligand Name>
N-(2,6-dichlorophenyl)-5-fluoro-4-(3-oxo-5,6,7,8-tetrahydro[1,2,4]triazolo[4,3-a]pyridin-2(3H)-yl)-2-{[(2S)-1,1,1-trifluoropropan-2-yl]oxy}benzamide::US10968216, Example 79

> <Curation/DataSource>
US Patent

> <Article DOI>
?

> <PMID>
?

> <Patent Number>
US10968216

> <Authors>
Gradl, SN; Nguyen, D; Eis, K; Gunther, J; Stellfeld, T; Janzer, A; Christian, S; Mueller, T; Sheikh, SE; Zhou, HJ; Zhao, C; Sykes, DB; Ferrara, SJ; Liu, K; Herbert, SA; Merz, C; Niehues, M; Nising, CF; Schafer, M; Zimmermann, K; Knablein, J; Thede, K; Faupel, T

> <Link to Ligand in BindingDB>
http://www.bindingdb.org/bind/chemsearch/marvin/MolStructure.jsp?monomerid=490411

> <Link to Ligand-Target Pair in BindingDB>
http://www.bindingdb.org/jsp/dbsearch/PrimarySearch_ki.jsp?energyterm=kJ/mole&tag=r21&monomerid=490411&enzyme=Dihydroorotate+dehydrogenase&column=ki&startPg=0&Increment=50&submit=Search

> <PubChem CID>
134474515

> <PubChem SID>
447117138

$$$$

  Mrv2115 07222212352D          

 23 25  0  0  0  0            999 V2000
    0.0000   -2.4750    0.0000 C   0  0  0  0  0  0  0  0  0  0  0  0
    0.0000   -1.6500    0.0000 O   0  0  0  0  0  0  0  0  0  0  0  0
    0.7145   -1.2375    0.0000 C   0  0  0  0  0  0  0  0  0  0  0  0
    0.7145   -0.4125    0.0000 C   0  0  0  0  0  0  0  0  0  0  0  0
    1.4289    0.0000    0.0000 C   0  0  0  0  0  0  0  0  0  0  0  0
    2.1434   -0.4125    0.0000 C   0  0  0  0  0  0  0  0  0  0  0  0
    2.8579    0.0000    0.0000 N   0  0  0  0  0  0  0  0  0  0  0  0
    3.5724   -0.4125    0.0000 C   0  0  0  0  0  0  0  0  0  0  0  0
    4.2868   -0.0000    0.0000 C   0  0  0  0  0  0  0  0  0  0  0  0
    4.2868    0.8250    0.0000 C   0  0  0  0  0  0  0  0  0  0  0  0
    5.0013    1.2375    0.0000 C   0  0  0  0  0  0  0  0  0  0  0  0
    5.7158    0.8250    0.0000 C   0  0  0  0  0  0  0  0  0  0  0  0
    6.4302    1.2375    0.0000 Cl  0  0  0  0  0  0  0  0  0  0  0  0
    5.7158   -0.0000    0.0000 C   0  0  0  0  0  0  0  0  0  0  0  0
    5.0013   -0.4125    0.0000 C   0  0  0  0  0  0  0  0  0  0  0  0
    3.5724   -1.2375    0.0000 C   0  0  0  0  0  0  0  0  0  0  0  0
    4.2868   -1.6500    0.0000 O   0  0  0  0  0  0  0  0  0  0  0  0
    2.8579   -1.6500    0.0000 C   0  0  0  0  0  0  0  0  0  0  0  0
    2.8579   -2.4750    0.0000 C   0  0  0  0  0  0  0  0  0  0  0  0
    2.1434   -2.8875    0.0000 O   0  0  0  0  0  0  0  0  0  0  0  0
    3.5724   -2.8875    0.0000 O   0  0  0  0  0  0  0  0  0  0  0  0
    2.1434   -1.2375    0.0000 C   0  0  0  0  0  0  0  0  0  0  0  0
    1.4289   -1.6500    0.0000 C   0  0  0  0  0  0  0  0  0  0  0  0
  1  2  1  0  0  0  0
  2  3  1  0  0  0  0
  3  4  4  0  0  0  0
  4  5  4  0  0  0  0
  5  6  4  0  0  0  0
  6  7  4  0  0  0  0
  7  8  4  0  0  0  0
  8  9  1  0  0  0  0
  9 10  4  0  0  0  0
 10 11  4  0  0  0  0
 11 12  4  0  0  0  0
 12 13  1  0  0  0  0
 12 14  4  0  0  0  0
 14 15  4  0  0  0  0
  9 15  4  0  0  0  0
  8 16  4  0  0  0  0
 16 17  1  0  0  0  0
 16 18  4  0  0  0  0
 18 19  1  0  0  0  0
 19 20  2  0  0  0  0
 19 21  1  0  0  0  0
 18 22  4  0  0  0  0
  6 22  4  0  0  0  0
 22 23  4  0  0  0  0
  3 23  4  0  0  0  0
M  END
> <IC50(uM)>
43.0

> <Outcome>
0.0

> <BindingDB ID>
50841869

> <BindingDB MonomerID>
50201909

> <BindingDB Ligand Name>
2-(4-chlorophenyl)-3-hydroxy-6-methoxyquinoline-4-carboxylicacid::CHEMBL219520

> <Curation/DataSource>
ChEMBL

> <Article DOI>
10.1021/jm0602256

> <PMID>
17201408

> <Patent Number>
?

> <Authors>
Kaila, N; Janz, K; DeBernardo, S; Bedard, PW; Camphausen, RT; Tam, S; Tsao, DH; Keith, JC; Nickerson-Nutter, C; Shilling, A; Young-Sciame, R; Wang, Q

> <Link to Ligand in BindingDB>
http://www.bindingdb.org/bind/chemsearch/marvin/MolStructure.jsp?monomerid=50201909

> <Link to Ligand-Target Pair in BindingDB>
http://www.bindingdb.org/jsp/dbsearch/PrimarySearch_ki.jsp?energyterm=kJ/mole&tag=r21&monomerid=50201909&enzyme=Dihydroorotate+dehydrogenase&column=ki&startPg=0&Increment=50&submit=Search

> <PubChem CID>
16100011

> <PubChem SID>
104081560

$$$$

  Mrv2115 07222212352D          

 21 22  0  0  0  0            999 V2000
    1.3222   -0.0616    0.0000 C   0  0  0  0  0  0  0  0  0  0  0  0
    2.0367   -0.4741    0.0000 C   0  0  0  0  0  0  0  0  0  0  0  0
    2.7512   -0.0616    0.0000 O   0  0  0  0  0  0  0  0  0  0  0  0
    2.0367   -1.2991    0.0000 C   0  0  0  0  0  0  0  0  0  0  0  0
    2.7041   -1.7840    0.0000 S   0  0  0  0  0  0  0  0  0  0  0  0
    2.4492   -2.5687    0.0000 C   0  0  0  0  0  0  0  0  0  0  0  0
    2.9341   -3.2361    0.0000 N   0  0  0  0  0  0  0  0  0  0  0  0
    2.5986   -3.9898    0.0000 C   0  0  0  0  0  0  0  0  0  0  0  0
    3.0835   -4.6572    0.0000 C   0  0  0  0  0  0  0  0  0  0  0  0
    2.7479   -5.4109    0.0000 C   0  0  0  0  0  0  0  0  0  0  0  0
    1.9275   -5.4971    0.0000 C   0  0  0  0  0  0  0  0  0  0  0  0
    1.5919   -6.2508    0.0000 Br  0  0  0  0  0  0  0  0  0  0  0  0
    1.4425   -4.8297    0.0000 C   0  0  0  0  0  0  0  0  0  0  0  0
    0.6221   -4.9159    0.0000 C   0  0  0  0  0  0  0  0  0  0  0  0
   -0.1984   -5.0021    0.0000 F   0  0  0  0  0  0  0  0  0  0  0  0
    0.5358   -4.0954    0.0000 F   0  0  0  0  0  0  0  0  0  0  0  0
    0.7083   -5.7364    0.0000 F   0  0  0  0  0  0  0  0  0  0  0  0
    1.7781   -4.0760    0.0000 C   0  0  0  0  0  0  0  0  0  0  0  0
    1.6242   -2.5687    0.0000 N   0  0  0  0  0  0  0  0  0  0  0  0
    1.3693   -1.7840    0.0000 C   0  0  0  0  0  0  0  0  0  0  0  0
    0.5846   -1.5291    0.0000 C   0  0  0  0  0  0  0  0  0  0  0  0
  1  2  1  0  0  0  0
  2  3  2  0  0  0  0
  2  4  1  0  0  0  0
  4  5  4  0  0  0  0
  5  6  4  0  0  0  0
  6  7  1  0  0  0  0
  7  8  1  0  0  0  0
  8  9  4  0  0  0  0
  9 10  4  0  0  0  0
 10 11  4  0  0  0  0
 11 12  1  0  0  0  0
 11 13  4  0  0  0  0
 13 14  1  0  0  0  0
 14 15  1  0  0  0  0
 14 16  1  0  0  0  0
 14 17  1  0  0  0  0
 13 18  4  0  0  0  0
  8 18  4  0  0  0  0
  6 19  4  0  0  0  0
 19 20  4  0  0  0  0
  4 20  4  0  0  0  0
 20 21  1  0  0  0  0
M  END
> <IC50(uM)>
1.926

> <Outcome>
0.0

> <BindingDB ID>
50312477

> <BindingDB MonomerID>
50071789

> <BindingDB Ligand Name>
CHEMBL3410575

> <Curation/DataSource>
ChEMBL

> <Article DOI>
10.1021/jm501127s

> <PMID>
25580811

> <Patent Number>
?

> <Authors>
Zhu, J; Han, L; Diao, Y; Ren, X; Xu, M; Xu, L; Li, S; Li, Q; Dong, D; Huang, J; Liu, X; Zhao, Z; Wang, R; Zhu, L; Xu, Y; Qian, X; Li, H

> <Link to Ligand in BindingDB>
http://www.bindingdb.org/bind/chemsearch/marvin/MolStructure.jsp?monomerid=50071789

> <Link to Ligand-Target Pair in BindingDB>
http://www.bindingdb.org/jsp/dbsearch/PrimarySearch_ki.jsp?energyterm=kJ/mole&tag=r21&monomerid=50071789&enzyme=Dihydroorotate+dehydrogenase&column=ki&startPg=0&Increment=50&submit=Search

> <PubChem CID>
118732494

> <PubChem SID>
103965499

$$$$

  Mrv2115 07222212352D          

 29 33  0  0  0  0            999 V2000
   -5.9581    3.8288    0.0000 C   0  0  0  0  0  0  0  0  0  0  0  0
   -5.1376    3.9151    0.0000 C   0  0  0  0  0  0  0  0  0  0  0  0
   -4.8020    4.6687    0.0000 C   0  0  0  0  0  0  0  0  0  0  0  0
   -3.9816    4.7550    0.0000 C   0  0  0  0  0  0  0  0  0  0  0  0
   -3.4966    4.0875    0.0000 C   0  0  0  0  0  0  0  0  0  0  0  0
   -2.6762    4.1738    0.0000 F   0  0  0  0  0  0  0  0  0  0  0  0
   -3.8322    3.3339    0.0000 C   0  0  0  0  0  0  0  0  0  0  0  0
   -3.3473    2.6664    0.0000 N   0  0  0  0  0  0  0  0  0  0  0  0
   -3.6022    1.8818    0.0000 N   0  0  0  0  0  0  0  0  0  0  0  0
   -2.9348    1.3969    0.0000 C   0  0  0  0  0  0  0  0  0  0  0  0
   -2.2673    1.8818    0.0000 C   0  0  0  0  0  0  0  0  0  0  0  0
   -2.5223    2.6664    0.0000 C   0  0  0  0  0  0  0  0  0  0  0  0
   -1.9702    3.2795    0.0000 C   0  0  0  0  0  0  0  0  0  0  0  0
   -1.1633    3.1080    0.0000 C   0  0  0  0  0  0  0  0  0  0  0  0
   -0.9083    2.3234    0.0000 C   0  0  0  0  0  0  0  0  0  0  0  0
   -1.4604    1.7103    0.0000 C   0  0  0  0  0  0  0  0  0  0  0  0
   -1.2054    0.9256    0.0000 N   0  0  0  0  0  0  0  0  0  0  0  0
   -0.3984    0.7541    0.0000 C   0  0  0  0  0  0  0  0  0  0  0  0
    0.1536    1.3672    0.0000 O   0  0  0  0  0  0  0  0  0  0  0  0
   -0.1435   -0.0305    0.0000 C   0  0  0  0  0  0  0  0  0  0  0  0
   -0.6284   -0.6979    0.0000 O   0  0  0  0  0  0  0  0  0  0  0  0
   -0.1435   -1.3654    0.0000 N   0  0  0  0  0  0  0  0  0  0  0  0
    0.6411   -1.1104    0.0000 C   0  0  0  0  0  0  0  0  0  0  0  0
    0.6411   -0.2854    0.0000 C   0  0  0  0  0  0  0  0  0  0  0  0
    1.3556    0.1271    0.0000 C   0  0  0  0  0  0  0  0  0  0  0  0
    2.0701   -0.2854    0.0000 C   0  0  0  0  0  0  0  0  0  0  0  0
    2.0701   -1.1104    0.0000 C   0  0  0  0  0  0  0  0  0  0  0  0
    1.3556   -1.5229    0.0000 C   0  0  0  0  0  0  0  0  0  0  0  0
   -4.6527    3.2476    0.0000 C   0  0  0  0  0  0  0  0  0  0  0  0
  1  2  1  0  0  0  0
  2  3  4  0  0  0  0
  3  4  4  0  0  0  0
  4  5  4  0  0  0  0
  5  6  1  0  0  0  0
  5  7  4  0  0  0  0
  7  8  1  0  0  0  0
  8  9  4  0  0  0  0
  9 10  4  0  0  0  0
 10 11  4  0  0  0  0
 11 12  4  0  0  0  0
  8 12  4  0  0  0  0
 12 13  1  0  0  0  0
 13 14  1  0  0  0  0
 14 15  1  0  0  0  0
 15 16  1  0  0  0  0
 11 16  1  0  0  0  0
 16 17  1  0  0  0  0
 17 18  1  0  0  0  0
 18 19  2  0  0  0  0
 18 20  1  0  0  0  0
 20 21  4  0  0  0  0
 21 22  4  0  0  0  0
 22 23  4  0  0  0  0
 23 24  4  0  0  0  0
 20 24  4  0  0  0  0
 24 25  1  0  0  0  0
 25 26  1  0  0  0  0
 26 27  1  0  0  0  0
 27 28  1  0  0  0  0
 23 28  1  0  0  0  0
  7 29  4  0  0  0  0
  2 29  4  0  0  0  0
M  END
> <IC50(uM)>
0.014

> <Outcome>
1.0

> <BindingDB ID>
993117; 51334964

> <BindingDB MonomerID>
477619

> <BindingDB Ligand Name>
(R)??N-(1-(2-fluoro-5-methylphenyl)-4,5,6,7-tetrahydro-1H-indazol-4-yl)-4,5,6,7-tetrahydrobenzo[c]isoxazole-3-carboxamide::US10889564, Example 49

> <Curation/DataSource>
US Patent; ChEMBL

> <Article DOI>
?; 10.1021/acs.jmedchem.9b01658

> <PMID>
?; 32212728

> <Patent Number>
US10889564; ?

> <Authors>
Lain, S; Drummond, C; Leeuwen, IV; Haraldsson, M; Johansson, L; Sandberg, L; Yngve, U; Popova, G; Ladds, MJGW; Johansson, L; Saleh, A; Larsson, J; Sandberg, L; Sahlberg, SH; Qian, W; Gullberg, H; Garg, N; Gustavsson, AL; Haraldsson, M; Lane, D; Yngve, U; Lain, S

> <Link to Ligand in BindingDB>
http://www.bindingdb.org/bind/chemsearch/marvin/MolStructure.jsp?monomerid=477619

> <Link to Ligand-Target Pair in BindingDB>
http://www.bindingdb.org/jsp/dbsearch/PrimarySearch_ki.jsp?energyterm=kJ/mole&tag=r21&monomerid=477619&enzyme=Dihydroorotate+dehydrogenase&column=ki&startPg=0&Increment=50&submit=Search

> <PubChem CID>
129104676

> <PubChem SID>
442137236

$$$$

  Mrv2115 07222212352D          

 23 25  0  0  0  0            999 V2000
    2.0367    0.3509    0.0000 N   0  0  0  0  0  0  0  0  0  0  0  0
    2.0367   -0.4741    0.0000 C   0  0  0  0  0  0  0  0  0  0  0  0
    2.0367   -1.2991    0.0000 C   0  0  0  0  0  0  0  0  0  0  0  0
    2.7041   -1.7840    0.0000 C   0  0  0  0  0  0  0  0  0  0  0  0
    3.4888   -1.5291    0.0000 C   0  0  0  0  0  0  0  0  0  0  0  0
    3.7437   -0.7445    0.0000 C   0  0  0  0  0  0  0  0  0  0  0  0
    4.5687   -0.7445    0.0000 C   0  0  0  0  0  0  0  0  0  0  0  0
    4.8236   -1.5291    0.0000 C   0  0  0  0  0  0  0  0  0  0  0  0
    4.1562   -2.0140    0.0000 S   0  0  0  0  0  0  0  0  0  0  0  0
    2.4492   -2.5687    0.0000 N   0  0  0  0  0  0  0  0  0  0  0  0
    1.6242   -2.5687    0.0000 N   0  0  0  0  0  0  0  0  0  0  0  0
    1.3693   -1.7840    0.0000 C   0  0  0  0  0  0  0  0  0  0  0  0
    0.5846   -1.5291    0.0000 N   0  0  0  0  0  0  0  0  0  0  0  0
    0.4131   -0.7221    0.0000 C   0  0  0  0  0  0  0  0  0  0  0  0
   -0.3715   -0.4672    0.0000 C   0  0  0  0  0  0  0  0  0  0  0  0
   -0.5430    0.3398    0.0000 C   0  0  0  0  0  0  0  0  0  0  0  0
    0.0701    0.8918    0.0000 C   0  0  0  0  0  0  0  0  0  0  0  0
   -0.1015    1.6988    0.0000 C   0  0  0  0  0  0  0  0  0  0  0  0
   -0.2730    2.5058    0.0000 F   0  0  0  0  0  0  0  0  0  0  0  0
    0.7055    1.8703    0.0000 F   0  0  0  0  0  0  0  0  0  0  0  0
   -0.9084    1.5273    0.0000 F   0  0  0  0  0  0  0  0  0  0  0  0
    0.8547    0.6369    0.0000 C   0  0  0  0  0  0  0  0  0  0  0  0
    1.0262   -0.1701    0.0000 C   0  0  0  0  0  0  0  0  0  0  0  0
  1  2  3  0  0  0  0
  2  3  1  0  0  0  0
  3  4  4  0  0  0  0
  4  5  1  0  0  0  0
  5  6  4  0  0  0  0
  6  7  4  0  0  0  0
  7  8  4  0  0  0  0
  8  9  4  0  0  0  0
  5  9  4  0  0  0  0
  4 10  4  0  0  0  0
 10 11  4  0  0  0  0
 11 12  4  0  0  0  0
  3 12  4  0  0  0  0
 12 13  1  0  0  0  0
 13 14  1  0  0  0  0
 14 15  4  0  0  0  0
 15 16  4  0  0  0  0
 16 17  4  0  0  0  0
 17 18  1  0  0  0  0
 18 19  1  0  0  0  0
 18 20  1  0  0  0  0
 18 21  1  0  0  0  0
 17 22  4  0  0  0  0
 22 23  4  0  0  0  0
 14 23  4  0  0  0  0
M  STY  1   1 DAT
M  SAL   1  1  11
M  SDT   1 MRV_IMPLICIT_H                                        
M  SDD   1     0.5304   -0.4125    DR    ALL  0       0  
M  SED   1 IMPL_H1
M  END
> <IC50(uM)>
50.0

> <Outcome>
0.0

> <BindingDB ID>
50786794

> <BindingDB MonomerID>
50066605

> <BindingDB Ligand Name>
5-Thiophen-2-yl-3-(4-trifluoromethyl-phenylamino)-1H-pyrazole-4-carbonitrile::CHEMBL119676

> <Curation/DataSource>
ChEMBL

> <Article DOI>
10.1021/jm981028c

> <PMID>
9719606

> <Patent Number>
?

> <Authors>
Papageorgiou, C; Albert, R; Floersheim, P; Lemaire, M; Bitch, F; Weber, HP; Andersen, E; Hungerford, V; Schreier, MH

> <Link to Ligand in BindingDB>
http://www.bindingdb.org/bind/chemsearch/marvin/MolStructure.jsp?monomerid=50066605

> <Link to Ligand-Target Pair in BindingDB>
http://www.bindingdb.org/jsp/dbsearch/PrimarySearch_ki.jsp?energyterm=kJ/mole&tag=r21&monomerid=50066605&enzyme=Dihydroorotate+dehydrogenase&column=ki&startPg=0&Increment=50&submit=Search

> <PubChem CID>
10759123

> <PubChem SID>
103961225

$$$$

  Mrv2115 07222212352D          

 34 37  0  0  0  0            999 V2000
    8.3536    7.2979    0.0000 C   0  0  0  0  0  0  0  0  0  0  0  0
    7.6391    6.8854    0.0000 C   0  0  0  0  0  0  0  0  0  0  0  0
    6.9246    7.2979    0.0000 C   0  0  0  0  0  0  0  0  0  0  0  0
    7.6391    6.0604    0.0000 N   0  0  0  0  0  0  0  0  0  0  0  0
    6.9246    5.6479    0.0000 C   0  0  0  0  0  0  0  0  0  0  0  0
    6.9246    4.8229    0.0000 C   0  0  0  0  0  0  0  0  0  0  0  0
    7.6391    4.4104    0.0000 C   0  0  0  0  0  0  0  0  0  0  0  0
    7.6391    3.5854    0.0000 C   0  0  0  0  0  0  0  0  0  0  0  0
    6.9246    3.1729    0.0000 C   0  0  0  0  0  0  0  0  0  0  0  0
    6.2102    3.5854    0.0000 C   0  0  0  0  0  0  0  0  0  0  0  0
    5.4957    3.1729    0.0000 C   0  0  0  0  0  0  0  0  0  0  0  0
    5.4957    2.3479    0.0000 C   0  0  0  0  0  0  0  0  0  0  0  0
    6.2102    1.9354    0.0000 F   0  0  0  0  0  0  0  0  0  0  0  0
    4.7812    1.9354    0.0000 C   0  0  0  0  0  0  0  0  0  0  0  0
    4.7812    1.1104    0.0000 F   0  0  0  0  0  0  0  0  0  0  0  0
    4.0668    2.3479    0.0000 C   0  0  0  0  0  0  0  0  0  0  0  0
    3.3523    1.9354    0.0000 C   0  0  0  0  0  0  0  0  0  0  0  0
    3.3523    1.1104    0.0000 C   0  0  0  0  0  0  0  0  0  0  0  0
    2.6378    0.6979    0.0000 C   0  0  0  0  0  0  0  0  0  0  0  0
    2.6378   -0.1271    0.0000 C   0  0  0  0  0  0  0  0  0  0  0  0
    1.9233   -0.5396    0.0000 O   0  0  0  0  0  0  0  0  0  0  0  0
    3.3523   -0.5396    0.0000 O   0  0  0  0  0  0  0  0  0  0  0  0
    1.9233    1.1104    0.0000 C   0  0  0  0  0  0  0  0  0  0  0  0
    1.9233    1.9354    0.0000 C   0  0  0  0  0  0  0  0  0  0  0  0
    2.6378    2.3479    0.0000 C   0  0  0  0  0  0  0  0  0  0  0  0
    1.1387    2.1904    0.0000 N   0  0  0  0  0  0  0  0  0  0  0  0
    0.6538    1.5229    0.0000 N   0  0  0  0  0  0  0  0  0  0  0  0
    1.1387    0.8555    0.0000 N   0  0  0  0  0  0  0  0  0  0  0  0
    0.8838    0.0709    0.0000 C   0  0  0  0  0  0  0  0  0  0  0  0
    4.0668    3.1729    0.0000 C   0  0  0  0  0  0  0  0  0  0  0  0
    3.3523    3.5854    0.0000 F   0  0  0  0  0  0  0  0  0  0  0  0
    4.7812    3.5854    0.0000 C   0  0  0  0  0  0  0  0  0  0  0  0
    4.7812    4.4104    0.0000 F   0  0  0  0  0  0  0  0  0  0  0  0
    6.2102    4.4104    0.0000 C   0  0  0  0  0  0  0  0  0  0  0  0
  1  2  1  0  0  0  0
  2  3  1  0  0  0  0
  2  4  1  0  0  0  0
  4  5  1  0  0  0  0
  5  6  1  0  0  0  0
  6  7  4  0  0  0  0
  7  8  4  0  0  0  0
  8  9  4  0  0  0  0
  9 10  4  0  0  0  0
 10 11  1  0  0  0  0
 11 12  4  0  0  0  0
 12 13  1  0  0  0  0
 12 14  4  0  0  0  0
 14 15  1  0  0  0  0
 14 16  4  0  0  0  0
 16 17  1  0  0  0  0
 17 18  4  0  0  0  0
 18 19  4  0  0  0  0
 19 20  1  0  0  0  0
 20 21  2  0  0  0  0
 20 22  1  0  0  0  0
 19 23  4  0  0  0  0
 23 24  4  0  0  0  0
 24 25  4  0  0  0  0
 17 25  4  0  0  0  0
 24 26  4  0  0  0  0
 26 27  4  0  0  0  0
 27 28  4  0  0  0  0
 23 28  4  0  0  0  0
 28 29  1  0  0  0  0
 16 30  4  0  0  0  0
 30 31  1  0  0  0  0
 30 32  4  0  0  0  0
 11 32  4  0  0  0  0
 32 33  1  0  0  0  0
 10 34  4  0  0  0  0
  6 34  4  0  0  0  0
M  END
> <IC50(uM)>
0.55

> <Outcome>
1.0

> <BindingDB ID>
1100172

> <BindingDB MonomerID>
520631

> <BindingDB Ligand Name>
1-methyl-5-(2,3,5,6-tetrafluoro-3'-((isopropylamino)methyl)-[1,1'-biphenyl]-4- yl)-1H-benzo[d][1,2,3]triazole-7-carboxylic acid;::US11147801, Compound 36

> <Curation/DataSource>
US Patent

> <Article DOI>
?

> <PMID>
?

> <Patent Number>
US11147801

> <Authors>
Nellore, K; Hosahalli, S

> <Link to Ligand in BindingDB>
http://www.bindingdb.org/bind/chemsearch/marvin/MolStructure.jsp?monomerid=520631

> <Link to Ligand-Target Pair in BindingDB>
http://www.bindingdb.org/jsp/dbsearch/PrimarySearch_ki.jsp?energyterm=kJ/mole&tag=r21&monomerid=520631&enzyme=Dihydroorotate+dehydrogenase&column=ki&startPg=0&Increment=50&submit=Search

> <PubChem CID>
?

> <PubChem SID>
?

$$$$

  Mrv2115 07222212352D          

 23 26  0  0  0  0            999 V2000
    0.9130   -0.8764    0.0000 N   0  0  0  0  0  0  0  0  0  0  0  0
    1.7200   -1.0479    0.0000 C   0  0  0  0  0  0  0  0  0  0  0  0
    2.2720   -0.4349    0.0000 N   0  0  0  0  0  0  0  0  0  0  0  0
    3.0790   -0.6064    0.0000 C   0  0  0  0  0  0  0  0  0  0  0  0
    3.7464   -0.1215    0.0000 C   0  0  0  0  0  0  0  0  0  0  0  0
    4.4139   -0.6064    0.0000 C   0  0  0  0  0  0  0  0  0  0  0  0
    5.2208   -0.4349    0.0000 C   0  0  0  0  0  0  0  0  0  0  0  0
    5.7729   -1.0479    0.0000 C   0  0  0  0  0  0  0  0  0  0  0  0
    5.5179   -1.8326    0.0000 C   0  0  0  0  0  0  0  0  0  0  0  0
    4.7110   -2.0041    0.0000 C   0  0  0  0  0  0  0  0  0  0  0  0
    4.1589   -1.3910    0.0000 C   0  0  0  0  0  0  0  0  0  0  0  0
    3.3339   -1.3910    0.0000 C   0  0  0  0  0  0  0  0  0  0  0  0
    2.7819   -2.0041    0.0000 C   0  0  0  0  0  0  0  0  0  0  0  0
    3.0368   -2.7887    0.0000 N   0  0  0  0  0  0  0  0  0  0  0  0
    2.4848   -3.4018    0.0000 C   0  0  0  0  0  0  0  0  0  0  0  0
    2.7397   -4.1864    0.0000 C   0  0  0  0  0  0  0  0  0  0  0  0
    2.1877   -4.7995    0.0000 C   0  0  0  0  0  0  0  0  0  0  0  0
    1.3807   -4.6280    0.0000 C   0  0  0  0  0  0  0  0  0  0  0  0
    0.8287   -5.2411    0.0000 Cl  0  0  0  0  0  0  0  0  0  0  0  0
    1.1258   -3.8434    0.0000 C   0  0  0  0  0  0  0  0  0  0  0  0
    1.6778   -3.2303    0.0000 C   0  0  0  0  0  0  0  0  0  0  0  0
    1.4229   -2.4457    0.0000 F   0  0  0  0  0  0  0  0  0  0  0  0
    1.9749   -1.8326    0.0000 N   0  0  0  0  0  0  0  0  0  0  0  0
  1  2  1  0  0  0  0
  2  3  4  0  0  0  0
  3  4  4  0  0  0  0
  4  5  4  0  0  0  0
  5  6  4  0  0  0  0
  6  7  4  0  0  0  0
  7  8  4  0  0  0  0
  8  9  4  0  0  0  0
  9 10  4  0  0  0  0
 10 11  4  0  0  0  0
  6 11  4  0  0  0  0
 11 12  4  0  0  0  0
  4 12  1  0  0  0  0
 12 13  4  0  0  0  0
 13 14  1  0  0  0  0
 14 15  1  0  0  0  0
 15 16  4  0  0  0  0
 16 17  4  0  0  0  0
 17 18  4  0  0  0  0
 18 19  1  0  0  0  0
 18 20  4  0  0  0  0
 20 21  4  0  0  0  0
 15 21  4  0  0  0  0
 21 22  1  0  0  0  0
 13 23  4  0  0  0  0
  2 23  4  0  0  0  0
M  STY  1   1 DAT
M  SAL   1  1  23
M  SDT   1 MRV_IMPLICIT_H                                        
M  SDD   1     0.5304   -0.4125    DR    ALL  0       0  
M  SED   1 IMPL_H1
M  END
> <IC50(uM)>
200.0

> <Outcome>
0.0

> <BindingDB ID>
50944654

> <BindingDB MonomerID>
50387407

> <BindingDB Ligand Name>
CHEMBL2047253

> <Curation/DataSource>
ChEMBL

> <Article DOI>
10.1016/j.bmc.2012.05.068

> <PMID>
22739090

> <Patent Number>
?

> <Authors>
Gangjee, A; Zhao, Y; Ihnat, MA; Thorpe, JE; Bailey-Downs, LC; Kisliuk, RL

> <Link to Ligand in BindingDB>
http://www.bindingdb.org/bind/chemsearch/marvin/MolStructure.jsp?monomerid=50387407

> <Link to Ligand-Target Pair in BindingDB>
http://www.bindingdb.org/jsp/dbsearch/PrimarySearch_ki.jsp?energyterm=kJ/mole&tag=r21&monomerid=50387407&enzyme=Dihydroorotate+dehydrogenase&column=ki&startPg=0&Increment=50&submit=Search

> <PubChem CID>
91005966

> <PubChem SID>
160866490

$$$$

  Mrv2115 07222212352D          

 21 23  0  0  0  0            999 V2000
   -0.0000   -4.1250    0.0000 C   0  0  0  0  0  0  0  0  0  0  0  0
   -0.7145   -3.7125    0.0000 C   0  0  0  0  0  0  0  0  0  0  0  0
   -1.4289   -4.1250    0.0000 C   0  0  0  0  0  0  0  0  0  0  0  0
   -2.1434   -3.7125    0.0000 C   0  0  0  0  0  0  0  0  0  0  0  0
   -2.8579   -4.1250    0.0000 Br  0  0  0  0  0  0  0  0  0  0  0  0
   -2.1434   -2.8875    0.0000 C   0  0  0  0  0  0  0  0  0  0  0  0
   -1.4289   -2.4750    0.0000 C   0  0  0  0  0  0  0  0  0  0  0  0
   -0.7145   -2.8875    0.0000 C   0  0  0  0  0  0  0  0  0  0  0  0
    0.0000   -2.4750    0.0000 N   0  0  0  0  0  0  0  0  0  0  0  0
    0.0000   -1.6500    0.0000 C   0  0  0  0  0  0  0  0  0  0  0  0
   -0.7145   -1.2375    0.0000 O   0  0  0  0  0  0  0  0  0  0  0  0
    0.7145   -1.2375    0.0000 C   0  0  0  0  0  0  0  0  0  0  0  0
    0.7145   -0.4125    0.0000 C   0  0  0  0  0  0  0  0  0  0  0  0
    1.4289    0.0000    0.0000 C   0  0  0  0  0  0  0  0  0  0  0  0
    2.1434   -0.4125    0.0000 C   0  0  0  0  0  0  0  0  0  0  0  0
    2.8579    0.0000    0.0000 C   0  0  0  0  0  0  0  0  0  0  0  0
    3.5724   -0.4125    0.0000 C   0  0  0  0  0  0  0  0  0  0  0  0
    3.5724   -1.2375    0.0000 C   0  0  0  0  0  0  0  0  0  0  0  0
    2.8579   -1.6500    0.0000 C   0  0  0  0  0  0  0  0  0  0  0  0
    2.1434   -1.2375    0.0000 C   0  0  0  0  0  0  0  0  0  0  0  0
    1.4289   -1.6500    0.0000 C   0  0  0  0  0  0  0  0  0  0  0  0
  1  2  1  0  0  0  0
  2  3  4  0  0  0  0
  3  4  4  0  0  0  0
  4  5  1  0  0  0  0
  4  6  4  0  0  0  0
  6  7  4  0  0  0  0
  7  8  4  0  0  0  0
  2  8  4  0  0  0  0
  8  9  1  0  0  0  0
  9 10  1  0  0  0  0
 10 11  2  0  0  0  0
 10 12  1  0  0  0  0
 12 13  4  0  0  0  0
 13 14  4  0  0  0  0
 14 15  4  0  0  0  0
 15 16  4  0  0  0  0
 16 17  4  0  0  0  0
 17 18  4  0  0  0  0
 18 19  4  0  0  0  0
 19 20  4  0  0  0  0
 15 20  4  0  0  0  0
 20 21  4  0  0  0  0
 12 21  4  0  0  0  0
M  END
> <IC50(uM)>
312.7

> <Outcome>
0.0

> <BindingDB ID>
28095; 26838

> <BindingDB MonomerID>
14710

> <BindingDB Ligand Name>
ChemBridge compound no. 2::N-(4-Bromo-2-methylphenyl)-2-naphthamide::N-(4-bromo-2-methylphenyl)naphthalene-2-carboxamide::naphthamide compound 2

> <Curation/DataSource>
Curated from the literature by BindingDB

> <Article DOI>
10.1074/jbc.M501100200; 10.1021/jm060687j

> <PMID>
15795226; 17228860

> <Patent Number>
?

> <Authors>
Baldwin, J; Michnoff, CH; Malmquist, NA; White, J; Roth, MG; Rathod, PK; Phillips, MA; Heikkila, T; Ramsey, C; Davies, M; Galtier, C; Stead, AM; Johnson, AP; Fishwick, CW; Boa, AN; McConkey, GA

> <Link to Ligand in BindingDB>
http://www.bindingdb.org/bind/chemsearch/marvin/MolStructure.jsp?monomerid=14710

> <Link to Ligand-Target Pair in BindingDB>
http://www.bindingdb.org/jsp/dbsearch/PrimarySearch_ki.jsp?energyterm=kJ/mole&tag=r21&monomerid=14710&enzyme=Dihydroorotate+Dehydrogenase+%28DHODH%29&column=ki&startPg=0&Increment=50&submit=Search; http://www.bindingdb.org/jsp/dbsearch/PrimarySearch_ki.jsp?energyterm=kJ/mole&tag=r21&monomerid=14710&enzyme=Dihydroorotate+dehydrogenase&column=ki&startPg=0&Increment=50&submit=Search

> <PubChem CID>
823850

> <PubChem SID>
46515040

$$$$

  Mrv2115 07222212352D          

 36 38  0  0  0  0            999 V2000
    0.7145   -2.8875    0.0000 C   0  0  0  0  0  0  0  0  0  0  0  0
    0.7145   -3.7125    0.0000 C   0  0  0  0  0  0  0  0  0  0  0  0
    1.4289   -4.1250    0.0000 N   0  0  0  0  0  0  0  0  0  0  0  0
    2.1434   -3.7125    0.0000 C   0  0  0  0  0  0  0  0  0  0  0  0
    1.4289   -4.9500    0.0000 C   0  0  0  0  0  0  0  0  0  0  0  0
    0.7615   -5.4349    0.0000 N   0  0  0  0  0  0  0  0  0  0  0  0
    1.0164   -6.2195    0.0000 N   0  0  0  0  0  0  0  0  0  0  0  0
    0.5315   -6.8870    0.0000 C   0  0  0  0  0  0  0  0  0  0  0  0
    0.8671   -7.6407    0.0000 C   0  0  0  0  0  0  0  0  0  0  0  0
    0.3822   -8.3081    0.0000 C   0  0  0  0  0  0  0  0  0  0  0  0
    0.7177   -9.0618    0.0000 O   0  0  0  0  0  0  0  0  0  0  0  0
    1.5382   -9.1480    0.0000 C   0  0  0  0  0  0  0  0  0  0  0  0
    2.0231   -8.4806    0.0000 C   0  0  0  0  0  0  0  0  0  0  0  0
    1.8738   -9.9017    0.0000 C   0  0  0  0  0  0  0  0  0  0  0  0
    1.1201  -10.2372    0.0000 F   0  0  0  0  0  0  0  0  0  0  0  0
    2.6274   -9.5661    0.0000 F   0  0  0  0  0  0  0  0  0  0  0  0
    2.2093  -10.6554    0.0000 F   0  0  0  0  0  0  0  0  0  0  0  0
   -0.4383   -8.2219    0.0000 C   0  0  0  0  0  0  0  0  0  0  0  0
   -0.9232   -8.8893    0.0000 C   0  0  0  0  0  0  0  0  0  0  0  0
   -1.7437   -8.8031    0.0000 O   0  0  0  0  0  0  0  0  0  0  0  0
   -0.5877   -9.6430    0.0000 N   0  0  0  0  0  0  0  0  0  0  0  0
   -1.0726  -10.3104    0.0000 C   0  0  0  0  0  0  0  0  0  0  0  0
   -0.7371  -11.0641    0.0000 C   0  0  0  0  0  0  0  0  0  0  0  0
    0.0834  -11.1503    0.0000 F   0  0  0  0  0  0  0  0  0  0  0  0
   -1.2220  -11.7315    0.0000 C   0  0  0  0  0  0  0  0  0  0  0  0
   -2.0425  -11.6453    0.0000 C   0  0  0  0  0  0  0  0  0  0  0  0
   -2.3780  -10.8916    0.0000 C   0  0  0  0  0  0  0  0  0  0  0  0
   -1.8931  -10.2242    0.0000 C   0  0  0  0  0  0  0  0  0  0  0  0
   -2.2287   -9.4705    0.0000 F   0  0  0  0  0  0  0  0  0  0  0  0
   -0.7739   -7.4682    0.0000 C   0  0  0  0  0  0  0  0  0  0  0  0
   -0.2890   -6.8007    0.0000 C   0  0  0  0  0  0  0  0  0  0  0  0
   -0.6245   -6.0471    0.0000 F   0  0  0  0  0  0  0  0  0  0  0  0
    1.8414   -6.2195    0.0000 C   0  0  0  0  0  0  0  0  0  0  0  0
    2.3264   -6.8870    0.0000 O   0  0  0  0  0  0  0  0  0  0  0  0
    2.0964   -5.4349    0.0000 N   0  0  0  0  0  0  0  0  0  0  0  0
    2.8810   -5.1800    0.0000 C   0  0  0  0  0  0  0  0  0  0  0  0
  1  2  1  0  0  0  0
  2  3  1  0  0  0  0
  3  4  1  0  0  0  0
  3  5  1  0  0  0  0
  5  6  4  0  0  0  0
  6  7  4  0  0  0  0
  7  8  1  0  0  0  0
  8  9  4  0  0  0  0
  9 10  4  0  0  0  0
 10 11  1  0  0  0  0
 11 12  1  0  0  0  0
 12 13  1  0  0  0  0
 12 14  1  0  0  0  0
 14 15  1  0  0  0  0
 14 16  1  0  0  0  0
 14 17  1  0  0  0  0
 10 18  4  0  0  0  0
 18 19  1  0  0  0  0
 19 20  2  0  0  0  0
 19 21  1  0  0  0  0
 21 22  1  0  0  0  0
 22 23  4  0  0  0  0
 23 24  1  0  0  0  0
 23 25  4  0  0  0  0
 25 26  4  0  0  0  0
 26 27  4  0  0  0  0
 27 28  4  0  0  0  0
 22 28  4  0  0  0  0
 28 29  1  0  0  0  0
 18 30  4  0  0  0  0
 30 31  4  0  0  0  0
  8 31  4  0  0  0  0
 31 32  1  0  0  0  0
  7 33  4  0  0  0  0
 33 34  2  0  0  0  0
 33 35  4  0  0  0  0
  5 35  4  0  0  0  0
 35 36  1  0  0  0  0
M  END
> <IC50(uM)>
0.9

> <Outcome>
1.0

> <BindingDB ID>
1098705; 972551

> <BindingDB MonomerID>
470425

> <BindingDB Ligand Name>
N-(2,6-difluorophenyl)-4-{3-[ethyl(methyl)amino]-4-methyl-5-oxo-4,5-dihydro-1H-1,2,4-triazol-1-yl}-5-fluoro-2-{[(2S)-1,1,1-trifluoropropan-2-yl]oxy}benzamide::US10815215, Example 93::US11130745, Example 93; N-(2,6-difluorophenyl)-4-{3-[ethyl(methyl)amino]-4-methyl-5-oxo-4,5-dihydro-1H-1,2,4-triazol-1-yl}-5-fluoro-2-{[(2S)-1,1,1-trifluoropropan-2-yl]oxy}benzamide::US10815215, Example 93

> <Curation/DataSource>
US Patent

> <Article DOI>
?

> <PMID>
?

> <Patent Number>
US11130745; US10815215

> <Authors>
Gradl, SN; Nguyen, D; Eis, K; Gunther, J; Stellfeld, T; Janzer, A; Christian, S; Muller, T; Sheikh, SE; Sykes, DB; Ferrara, SJ; Krober, M; Merz, C; Niehues, M; Schafer, M; Zimmermann, K; Nising, CF; Gradl, SN; Nguyen, D; Eis, K; Gunther, J; Stellfeld, T; Janzer, A; Christian, S; Muller, T; Sheikh, SE; Zhou, HJ; Zhao, C; Sykes, DB; Ferrara, SJ; Liu, K; Krober, M; Merz, C; Niehues, M; Schafer, M; Zimmermann, K; Nising, CF

> <Link to Ligand in BindingDB>
http://www.bindingdb.org/bind/chemsearch/marvin/MolStructure.jsp?monomerid=470425

> <Link to Ligand-Target Pair in BindingDB>
http://www.bindingdb.org/jsp/dbsearch/PrimarySearch_ki.jsp?energyterm=kJ/mole&tag=r21&monomerid=470425&enzyme=Dihydroorotate+dehydrogenase&column=ki&startPg=0&Increment=50&submit=Search

> <PubChem CID>
134469942

> <PubChem SID>
441609602

$$$$

  Mrv2115 07222212352D          

 29 31  0  0  0  0            999 V2000
    1.4289   -6.6000    0.0000 C   0  0  0  0  0  0  0  0  0  0  0  0
    2.1434   -6.1875    0.0000 C   0  0  0  0  0  0  0  0  0  0  0  0
    2.8579   -6.6000    0.0000 C   0  0  0  0  0  0  0  0  0  0  0  0
    2.8579   -7.4250    0.0000 O   0  0  0  0  0  0  0  0  0  0  0  0
    3.5724   -6.1875    0.0000 C   0  0  0  0  0  0  0  0  0  0  0  0
    3.5724   -5.3625    0.0000 C   0  0  0  0  0  0  0  0  0  0  0  0
    3.5724   -4.5375    0.0000 N   0  0  0  0  0  0  0  0  0  0  0  0
    4.2868   -6.6000    0.0000 C   0  0  0  0  0  0  0  0  0  0  0  0
    4.2868   -7.4250    0.0000 O   0  0  0  0  0  0  0  0  0  0  0  0
    5.0013   -6.1875    0.0000 N   0  0  0  0  0  0  0  0  0  0  0  0
    5.7158   -6.6000    0.0000 C   0  0  0  0  0  0  0  0  0  0  0  0
    6.4302   -6.1875    0.0000 C   0  0  0  0  0  0  0  0  0  0  0  0
    7.1447   -6.6000    0.0000 C   0  0  0  0  0  0  0  0  0  0  0  0
    7.1447   -7.4250    0.0000 C   0  0  0  0  0  0  0  0  0  0  0  0
    7.8592   -7.8375    0.0000 C   0  0  0  0  0  0  0  0  0  0  0  0
    8.5737   -7.4250    0.0000 C   0  0  0  0  0  0  0  0  0  0  0  0
    9.2881   -7.8375    0.0000 C   0  0  0  0  0  0  0  0  0  0  0  0
    9.2881   -8.6625    0.0000 C   0  0  0  0  0  0  0  0  0  0  0  0
    8.5737   -9.0750    0.0000 C   0  0  0  0  0  0  0  0  0  0  0  0
    7.8592   -8.6625    0.0000 C   0  0  0  0  0  0  0  0  0  0  0  0
    8.7452   -9.8820    0.0000 O   0  0  0  0  0  0  0  0  0  0  0  0
    9.5657   -9.9682    0.0000 C   0  0  0  0  0  0  0  0  0  0  0  0
    9.9012   -9.2145    0.0000 O   0  0  0  0  0  0  0  0  0  0  0  0
    6.4302   -7.8375    0.0000 C   0  0  0  0  0  0  0  0  0  0  0  0
    6.4302   -8.6625    0.0000 C   0  0  0  0  0  0  0  0  0  0  0  0
    5.7158   -9.0750    0.0000 O   0  0  0  0  0  0  0  0  0  0  0  0
    7.1447   -9.0750    0.0000 O   0  0  0  0  0  0  0  0  0  0  0  0
    7.1447   -9.9000    0.0000 C   0  0  0  0  0  0  0  0  0  0  0  0
    5.7158   -7.4250    0.0000 C   0  0  0  0  0  0  0  0  0  0  0  0
  1  2  1  0  0  0  0
  2  3  1  0  0  0  0
  3  4  2  0  0  0  0
  3  5  1  0  0  0  0
  5  6  1  0  0  0  0
  6  7  3  0  0  0  0
  5  8  1  0  0  0  0
  8  9  2  0  0  0  0
  8 10  1  0  0  0  0
 10 11  1  0  0  0  0
 11 12  4  0  0  0  0
 12 13  4  0  0  0  0
 13 14  4  0  0  0  0
 14 15  1  0  0  0  0
 15 16  4  0  0  0  0
 16 17  4  0  0  0  0
 17 18  4  0  0  0  0
 18 19  4  0  0  0  0
 19 20  4  0  0  0  0
 15 20  4  0  0  0  0
 19 21  1  0  0  0  0
 21 22  1  0  0  0  0
 22 23  1  0  0  0  0
 18 23  1  0  0  0  0
 14 24  4  0  0  0  0
 24 25  1  0  0  0  0
 25 26  2  0  0  0  0
 25 27  1  0  0  0  0
 27 28  1  0  0  0  0
 24 29  4  0  0  0  0
 11 29  4  0  0  0  0
M  END
> <IC50(uM)>
0.076

> <Outcome>
1.0

> <BindingDB ID>
50707384

> <BindingDB MonomerID>
50359705

> <BindingDB Ligand Name>
CHEMBL1929449

> <Curation/DataSource>
ChEMBL

> <Article DOI>
10.1016/j.bmcl.2011.10.052

> <PMID>
22078215

> <Patent Number>
?

> <Authors>
Erra, M; Moreno, I; Sanahuja, J; Andres, M; Reinoso, RF; Lozoya, E; Pizcueta, P; Godessart, N; Castro-Palomino, JC

> <Link to Ligand in BindingDB>
http://www.bindingdb.org/bind/chemsearch/marvin/MolStructure.jsp?monomerid=50359705

> <Link to Ligand-Target Pair in BindingDB>
http://www.bindingdb.org/jsp/dbsearch/PrimarySearch_ki.jsp?energyterm=kJ/mole&tag=r21&monomerid=50359705&enzyme=Dihydroorotate+dehydrogenase&column=ki&startPg=0&Increment=50&submit=Search

> <PubChem CID>
91930453

> <PubChem SID>
136963729

$$$$

  Mrv2115 07222212352D          

 23 25  0  0  0  0            999 V2000
    0.7145   -0.4125    0.0000 C   0  0  0  0  0  0  0  0  0  0  0  0
    0.7145   -1.2375    0.0000 C   0  0  0  0  0  0  0  0  0  0  0  0
    1.3819   -1.7224    0.0000 N   0  0  0  0  0  0  0  0  0  0  0  0
    1.1270   -2.5070    0.0000 N   0  0  0  0  0  0  0  0  0  0  0  0
    0.3020   -2.5070    0.0000 C   0  0  0  0  0  0  0  0  0  0  0  0
   -0.1830   -3.1745    0.0000 N   0  0  0  0  0  0  0  0  0  0  0  0
    0.1526   -3.9282    0.0000 C   0  0  0  0  0  0  0  0  0  0  0  0
    0.9731   -4.0144    0.0000 C   0  0  0  0  0  0  0  0  0  0  0  0
    1.3086   -4.7681    0.0000 C   0  0  0  0  0  0  0  0  0  0  0  0
    0.8237   -5.4355    0.0000 C   0  0  0  0  0  0  0  0  0  0  0  0
    1.1593   -6.1892    0.0000 C   0  0  0  0  0  0  0  0  0  0  0  0
    1.4948   -6.9429    0.0000 F   0  0  0  0  0  0  0  0  0  0  0  0
    1.9130   -5.8536    0.0000 F   0  0  0  0  0  0  0  0  0  0  0  0
    0.4056   -6.5247    0.0000 F   0  0  0  0  0  0  0  0  0  0  0  0
    0.0032   -5.3493    0.0000 C   0  0  0  0  0  0  0  0  0  0  0  0
   -0.3323   -4.5956    0.0000 C   0  0  0  0  0  0  0  0  0  0  0  0
    0.0470   -1.7224    0.0000 C   0  0  0  0  0  0  0  0  0  0  0  0
   -0.7376   -1.4675    0.0000 C   0  0  0  0  0  0  0  0  0  0  0  0
   -1.3507   -2.0195    0.0000 C   0  0  0  0  0  0  0  0  0  0  0  0
   -2.1353   -1.7646    0.0000 C   0  0  0  0  0  0  0  0  0  0  0  0
   -2.3068   -0.9576    0.0000 C   0  0  0  0  0  0  0  0  0  0  0  0
   -1.6937   -0.4056    0.0000 C   0  0  0  0  0  0  0  0  0  0  0  0
   -0.9091   -0.6605    0.0000 C   0  0  0  0  0  0  0  0  0  0  0  0
  1  2  1  0  0  0  0
  2  3  4  0  0  0  0
  3  4  4  0  0  0  0
  4  5  4  0  0  0  0
  5  6  1  0  0  0  0
  6  7  1  0  0  0  0
  7  8  4  0  0  0  0
  8  9  4  0  0  0  0
  9 10  4  0  0  0  0
 10 11  1  0  0  0  0
 11 12  1  0  0  0  0
 11 13  1  0  0  0  0
 11 14  1  0  0  0  0
 10 15  4  0  0  0  0
 15 16  4  0  0  0  0
  7 16  4  0  0  0  0
  5 17  4  0  0  0  0
  2 17  4  0  0  0  0
 17 18  1  0  0  0  0
 18 19  4  0  0  0  0
 19 20  4  0  0  0  0
 20 21  4  0  0  0  0
 21 22  4  0  0  0  0
 22 23  4  0  0  0  0
 18 23  4  0  0  0  0
M  STY  1   1 DAT
M  SAL   1  1   4
M  SDT   1 MRV_IMPLICIT_H                                        
M  SDD   1     0.5304   -0.4125    DR    ALL  0       0  
M  SED   1 IMPL_H1
M  END
> <IC50(uM)>
50.0

> <Outcome>
0.0

> <BindingDB ID>
50786764

> <BindingDB MonomerID>
50066587

> <BindingDB Ligand Name>
(5-Methyl-4-phenyl-1H-pyrazol-3-yl)-(4-trifluoromethyl-phenyl)-amine::CHEMBL326960

> <Curation/DataSource>
ChEMBL

> <Article DOI>
10.1021/jm981028c

> <PMID>
9719606

> <Patent Number>
?

> <Authors>
Papageorgiou, C; Albert, R; Floersheim, P; Lemaire, M; Bitch, F; Weber, HP; Andersen, E; Hungerford, V; Schreier, MH

> <Link to Ligand in BindingDB>
http://www.bindingdb.org/bind/chemsearch/marvin/MolStructure.jsp?monomerid=50066587

> <Link to Ligand-Target Pair in BindingDB>
http://www.bindingdb.org/jsp/dbsearch/PrimarySearch_ki.jsp?energyterm=kJ/mole&tag=r21&monomerid=50066587&enzyme=Dihydroorotate+dehydrogenase&column=ki&startPg=0&Increment=50&submit=Search

> <PubChem CID>
10805428

> <PubChem SID>
103961207

$$$$

  Mrv2115 07222212352D          

 37 41  0  0  0  0            999 V2000
   -5.1659   -2.8414    0.0000 C   0  0  0  0  0  0  0  0  0  0  0  0
   -5.5784   -2.1269    0.0000 C   0  0  0  0  0  0  0  0  0  0  0  0
   -6.4034   -2.1269    0.0000 C   0  0  0  0  0  0  0  0  0  0  0  0
   -6.8159   -1.4124    0.0000 C   0  0  0  0  0  0  0  0  0  0  0  0
   -7.6409   -1.4124    0.0000 N   0  0  0  0  0  0  0  0  0  0  0  0
   -6.4034   -0.6979    0.0000 C   0  0  0  0  0  0  0  0  0  0  0  0
   -5.5784   -0.6979    0.0000 N   0  0  0  0  0  0  0  0  0  0  0  0
   -5.1659   -1.4124    0.0000 C   0  0  0  0  0  0  0  0  0  0  0  0
   -4.3409   -1.4124    0.0000 N   0  0  0  0  0  0  0  0  0  0  0  0
   -3.9284   -0.6979    0.0000 C   0  0  0  0  0  0  0  0  0  0  0  0
   -4.3409    0.0165    0.0000 O   0  0  0  0  0  0  0  0  0  0  0  0
   -3.1034   -0.6979    0.0000 C   0  0  0  0  0  0  0  0  0  0  0  0
   -2.6909    0.0165    0.0000 C   0  0  0  0  0  0  0  0  0  0  0  0
   -1.8659    0.0165    0.0000 C   0  0  0  0  0  0  0  0  0  0  0  0
   -1.4534    0.7310    0.0000 F   0  0  0  0  0  0  0  0  0  0  0  0
   -1.4534   -0.6979    0.0000 C   0  0  0  0  0  0  0  0  0  0  0  0
   -0.6284   -0.6979    0.0000 N   0  0  0  0  0  0  0  0  0  0  0  0
   -0.1435   -1.3654    0.0000 N   0  0  0  0  0  0  0  0  0  0  0  0
    0.6411   -1.1104    0.0000 C   0  0  0  0  0  0  0  0  0  0  0  0
    0.6411   -0.2854    0.0000 N   0  0  0  0  0  0  0  0  0  0  0  0
   -0.1435   -0.0305    0.0000 C   0  0  0  0  0  0  0  0  0  0  0  0
   -0.3984    0.7541    0.0000 O   0  0  0  0  0  0  0  0  0  0  0  0
    1.3556    0.1271    0.0000 C   0  0  0  0  0  0  0  0  0  0  0  0
    2.0701   -0.2854    0.0000 C   0  0  0  0  0  0  0  0  0  0  0  0
    2.0701   -1.1104    0.0000 C   0  0  0  0  0  0  0  0  0  0  0  0
    1.3556   -1.5229    0.0000 C   0  0  0  0  0  0  0  0  0  0  0  0
   -1.8659   -1.4124    0.0000 C   0  0  0  0  0  0  0  0  0  0  0  0
   -2.6909   -1.4124    0.0000 C   0  0  0  0  0  0  0  0  0  0  0  0
   -3.1034   -2.1269    0.0000 O   0  0  0  0  0  0  0  0  0  0  0  0
   -2.6909   -2.8414    0.0000 C   0  0  0  0  0  0  0  0  0  0  0  0
   -1.8659   -2.8414    0.0000 C   0  0  0  0  0  0  0  0  0  0  0  0
   -3.1034   -3.5558    0.0000 C   0  0  0  0  0  0  0  0  0  0  0  0
   -2.6909   -4.2703    0.0000 C   0  0  0  0  0  0  0  0  0  0  0  0
   -3.1034   -4.9848    0.0000 C   0  0  0  0  0  0  0  0  0  0  0  0
   -3.9284   -4.9848    0.0000 C   0  0  0  0  0  0  0  0  0  0  0  0
   -4.3409   -4.2703    0.0000 C   0  0  0  0  0  0  0  0  0  0  0  0
   -3.9284   -3.5558    0.0000 C   0  0  0  0  0  0  0  0  0  0  0  0
  1  2  1  0  0  0  0
  2  3  4  0  0  0  0
  3  4  4  0  0  0  0
  4  5  1  0  0  0  0
  4  6  4  0  0  0  0
  6  7  4  0  0  0  0
  7  8  4  0  0  0  0
  2  8  4  0  0  0  0
  8  9  1  0  0  0  0
  9 10  1  0  0  0  0
 10 11  2  0  0  0  0
 10 12  1  0  0  0  0
 12 13  4  0  0  0  0
 13 14  4  0  0  0  0
 14 15  1  0  0  0  0
 14 16  4  0  0  0  0
 16 17  1  0  0  0  0
 17 18  4  0  0  0  0
 18 19  4  0  0  0  0
 19 20  4  0  0  0  0
 20 21  4  0  0  0  0
 17 21  4  0  0  0  0
 21 22  2  0  0  0  0
 20 23  1  0  0  0  0
 23 24  1  0  0  0  0
 24 25  1  0  0  0  0
 25 26  1  0  0  0  0
 19 26  1  0  0  0  0
 16 27  4  0  0  0  0
 27 28  4  0  0  0  0
 12 28  4  0  0  0  0
 28 29  1  0  0  0  0
 29 30  1  0  0  0  0
 30 31  1  0  0  0  0
 30 32  1  0  0  0  0
 32 33  1  0  0  0  0
 33 34  1  0  0  0  0
 34 35  1  0  0  0  0
 35 36  1  0  0  0  0
 36 37  1  0  0  0  0
 32 37  1  0  0  0  0
M  END
> <IC50(uM)>
0.002

> <Outcome>
1.0

> <BindingDB ID>
1020533

> <BindingDB MonomerID>
490477

> <BindingDB Ligand Name>
N-(5-amino-3-methylpyridin-2-yl)-2-[(1S)-1-cyclohexylethoxy]-5-fluoro-4-(3-oxo-5,6,7,8-tetrahydro[1,2,4]triazolo[4,3-a]pyridin-2(3H)-yl)benzamide::US10968216, Example 145

> <Curation/DataSource>
US Patent

> <Article DOI>
?

> <PMID>
?

> <Patent Number>
US10968216

> <Authors>
Gradl, SN; Nguyen, D; Eis, K; Gunther, J; Stellfeld, T; Janzer, A; Christian, S; Mueller, T; Sheikh, SE; Zhou, HJ; Zhao, C; Sykes, DB; Ferrara, SJ; Liu, K; Herbert, SA; Merz, C; Niehues, M; Nising, CF; Schafer, M; Zimmermann, K; Knablein, J; Thede, K; Faupel, T

> <Link to Ligand in BindingDB>
http://www.bindingdb.org/bind/chemsearch/marvin/MolStructure.jsp?monomerid=490477

> <Link to Ligand-Target Pair in BindingDB>
http://www.bindingdb.org/jsp/dbsearch/PrimarySearch_ki.jsp?energyterm=kJ/mole&tag=r21&monomerid=490477&enzyme=Dihydroorotate+dehydrogenase&column=ki&startPg=0&Increment=50&submit=Search

> <PubChem CID>
134474258

> <PubChem SID>
447117204

$$$$

  Mrv2115 07222212352D          

 28 32  0  0  0  0            999 V2000
    6.5311   -4.5211    0.0000 N   0  0  0  0  0  0  0  0  0  0  0  0
    5.7242   -4.3496    0.0000 C   0  0  0  0  0  0  0  0  0  0  0  0
    5.1721   -4.9627    0.0000 C   0  0  0  0  0  0  0  0  0  0  0  0
    4.3652   -4.7911    0.0000 C   0  0  0  0  0  0  0  0  0  0  0  0
    4.1102   -4.0065    0.0000 C   0  0  0  0  0  0  0  0  0  0  0  0
    4.6623   -3.3934    0.0000 C   0  0  0  0  0  0  0  0  0  0  0  0
    4.4073   -2.6088    0.0000 C   0  0  0  0  0  0  0  0  0  0  0  0
    3.6004   -2.4373    0.0000 C   0  0  0  0  0  0  0  0  0  0  0  0
    3.3454   -1.6527    0.0000 C   0  0  0  0  0  0  0  0  0  0  0  0
    3.8974   -1.0396    0.0000 C   0  0  0  0  0  0  0  0  0  0  0  0
    3.6425   -0.2549    0.0000 N   0  0  0  0  0  0  0  0  0  0  0  0
    4.1274    0.4125    0.0000 N   0  0  0  0  0  0  0  0  0  0  0  0
    3.6425    1.0799    0.0000 N   0  0  0  0  0  0  0  0  0  0  0  0
    2.8579    0.8250    0.0000 C   0  0  0  0  0  0  0  0  0  0  0  0
    2.8579    0.0000    0.0000 C   0  0  0  0  0  0  0  0  0  0  0  0
    2.1434   -0.4125    0.0000 C   0  0  0  0  0  0  0  0  0  0  0  0
    2.1434   -1.2375    0.0000 O   0  0  0  0  0  0  0  0  0  0  0  0
    1.4289   -0.0000    0.0000 C   0  0  0  0  0  0  0  0  0  0  0  0
    0.7145   -0.4125    0.0000 C   0  0  0  0  0  0  0  0  0  0  0  0
   -0.0000    0.0000    0.0000 C   0  0  0  0  0  0  0  0  0  0  0  0
    0.0000    0.8250    0.0000 C   0  0  0  0  0  0  0  0  0  0  0  0
    0.7145    1.2375    0.0000 C   0  0  0  0  0  0  0  0  0  0  0  0
    1.4289    0.8250    0.0000 C   0  0  0  0  0  0  0  0  0  0  0  0
    2.1434    1.2375    0.0000 C   0  0  0  0  0  0  0  0  0  0  0  0
    2.1434    2.0625    0.0000 O   0  0  0  0  0  0  0  0  0  0  0  0
    4.7044   -1.2111    0.0000 C   0  0  0  0  0  0  0  0  0  0  0  0
    4.9594   -1.9957    0.0000 C   0  0  0  0  0  0  0  0  0  0  0  0
    5.4692   -3.5650    0.0000 C   0  0  0  0  0  0  0  0  0  0  0  0
  1  2  1  0  0  0  0
  2  3  4  0  0  0  0
  3  4  4  0  0  0  0
  4  5  4  0  0  0  0
  5  6  4  0  0  0  0
  6  7  1  0  0  0  0
  7  8  4  0  0  0  0
  8  9  4  0  0  0  0
  9 10  4  0  0  0  0
 10 11  1  0  0  0  0
 11 12  4  0  0  0  0
 12 13  4  0  0  0  0
 13 14  4  0  0  0  0
 14 15  4  0  0  0  0
 11 15  4  0  0  0  0
 15 16  1  0  0  0  0
 16 17  2  0  0  0  0
 16 18  1  0  0  0  0
 18 19  4  0  0  0  0
 19 20  4  0  0  0  0
 20 21  4  0  0  0  0
 21 22  4  0  0  0  0
 22 23  4  0  0  0  0
 18 23  4  0  0  0  0
 23 24  1  0  0  0  0
 14 24  1  0  0  0  0
 24 25  2  0  0  0  0
 10 26  4  0  0  0  0
 26 27  4  0  0  0  0
  7 27  4  0  0  0  0
  6 28  4  0  0  0  0
  2 28  4  0  0  0  0
M  END
> <IC50(uM)>
0.0030999999999999995

> <Outcome>
1.0

> <BindingDB ID>
51338186

> <BindingDB MonomerID>
50541660

> <BindingDB Ligand Name>
CHEMBL4641822

> <Curation/DataSource>
ChEMBL

> <Article DOI>
10.1021/acs.jmedchem.0c00512

> <PMID>
32496056

> <Patent Number>
?

> <Authors>
Zuo, Z; Liu, X; Qian, X; Zeng, T; Sang, N; Liu, H; Zhou, Y; Tao, L; Zhou, X; Su, N; Yu, Y; Chen, Q; Luo, Y; Zhao, Y

> <Link to Ligand in BindingDB>
http://www.bindingdb.org/bind/chemsearch/marvin/MolStructure.jsp?monomerid=50541660

> <Link to Ligand-Target Pair in BindingDB>
http://www.bindingdb.org/jsp/dbsearch/PrimarySearch_ki.jsp?energyterm=kJ/mole&tag=r21&monomerid=50541660&enzyme=Dihydroorotate+dehydrogenase&column=ki&startPg=0&Increment=50&submit=Search

> <PubChem CID>
156017368

> <PubChem SID>
442143223

$$$$

  Mrv2115 07222212352D          

 27 30  0  0  0  0            999 V2000
    2.1434   -2.8875    0.0000 O   0  0  0  0  0  0  0  0  0  0  0  0
    1.4289   -2.4750    0.0000 C   0  0  0  0  0  0  0  0  0  0  0  0
    0.7145   -2.8875    0.0000 O   0  0  0  0  0  0  0  0  0  0  0  0
    1.4289   -1.6500    0.0000 C   0  0  0  0  0  0  0  0  0  0  0  0
    0.7145   -1.2375    0.0000 C   0  0  0  0  0  0  0  0  0  0  0  0
    0.0000   -1.6500    0.0000 O   0  0  0  0  0  0  0  0  0  0  0  0
    0.7145   -0.4125    0.0000 C   0  0  0  0  0  0  0  0  0  0  0  0
    0.0000    0.0000    0.0000 C   0  0  0  0  0  0  0  0  0  0  0  0
   -0.7145   -0.4125    0.0000 C   0  0  0  0  0  0  0  0  0  0  0  0
   -1.4289    0.0000    0.0000 C   0  0  0  0  0  0  0  0  0  0  0  0
   -1.4289    0.8250    0.0000 C   0  0  0  0  0  0  0  0  0  0  0  0
   -2.1434    1.2375    0.0000 C   0  0  0  0  0  0  0  0  0  0  0  0
   -2.8579    0.8250    0.0000 C   0  0  0  0  0  0  0  0  0  0  0  0
   -3.5724    1.2375    0.0000 C   0  0  0  0  0  0  0  0  0  0  0  0
   -3.5724    2.0625    0.0000 C   0  0  0  0  0  0  0  0  0  0  0  0
   -4.2868    2.4750    0.0000 O   0  0  0  0  0  0  0  0  0  0  0  0
   -2.8579    2.4750    0.0000 C   0  0  0  0  0  0  0  0  0  0  0  0
   -2.1434    2.0625    0.0000 C   0  0  0  0  0  0  0  0  0  0  0  0
   -0.7145    1.2375    0.0000 C   0  0  0  0  0  0  0  0  0  0  0  0
    0.0000    0.8250    0.0000 C   0  0  0  0  0  0  0  0  0  0  0  0
    1.4289    0.0000    0.0000 N   0  0  0  0  0  0  0  0  0  0  0  0
    2.1434   -0.4125    0.0000 C   0  0  0  0  0  0  0  0  0  0  0  0
    2.8579    0.0000    0.0000 C   0  0  0  0  0  0  0  0  0  0  0  0
    3.5724   -0.4125    0.0000 C   0  0  0  0  0  0  0  0  0  0  0  0
    3.5724   -1.2375    0.0000 C   0  0  0  0  0  0  0  0  0  0  0  0
    2.8579   -1.6500    0.0000 C   0  0  0  0  0  0  0  0  0  0  0  0
    2.1434   -1.2375    0.0000 C   0  0  0  0  0  0  0  0  0  0  0  0
  1  2  2  0  0  0  0
  2  3  1  0  0  0  0
  2  4  1  0  0  0  0
  4  5  4  0  0  0  0
  5  6  1  0  0  0  0
  5  7  4  0  0  0  0
  7  8  1  0  0  0  0
  8  9  4  0  0  0  0
  9 10  4  0  0  0  0
 10 11  4  0  0  0  0
 11 12  1  0  0  0  0
 12 13  4  0  0  0  0
 13 14  4  0  0  0  0
 14 15  4  0  0  0  0
 15 16  1  0  0  0  0
 15 17  4  0  0  0  0
 17 18  4  0  0  0  0
 12 18  4  0  0  0  0
 11 19  4  0  0  0  0
 19 20  4  0  0  0  0
  8 20  4  0  0  0  0
  7 21  4  0  0  0  0
 21 22  4  0  0  0  0
 22 23  4  0  0  0  0
 23 24  4  0  0  0  0
 24 25  4  0  0  0  0
 25 26  4  0  0  0  0
 26 27  4  0  0  0  0
  4 27  4  0  0  0  0
 22 27  4  0  0  0  0
M  END
> <IC50(uM)>
0.006

> <Outcome>
1.0

> <BindingDB ID>
50841896

> <BindingDB MonomerID>
50201923

> <BindingDB Ligand Name>
3-hydroxy-2-(4'-hydroxy-biphenyl-4-yl)-quinoline-4-carboxylic acid::CHEMBL218062

> <Curation/DataSource>
ChEMBL

> <Article DOI>
10.1021/jm0602256

> <PMID>
17201408

> <Patent Number>
?

> <Authors>
Kaila, N; Janz, K; DeBernardo, S; Bedard, PW; Camphausen, RT; Tam, S; Tsao, DH; Keith, JC; Nickerson-Nutter, C; Shilling, A; Young-Sciame, R; Wang, Q

> <Link to Ligand in BindingDB>
http://www.bindingdb.org/bind/chemsearch/marvin/MolStructure.jsp?monomerid=50201923

> <Link to Ligand-Target Pair in BindingDB>
http://www.bindingdb.org/jsp/dbsearch/PrimarySearch_ki.jsp?energyterm=kJ/mole&tag=r21&monomerid=50201923&enzyme=Dihydroorotate+dehydrogenase&column=ki&startPg=0&Increment=50&submit=Search

> <PubChem CID>
54708674

> <PubChem SID>
104081574

$$$$

  Mrv2115 07222212352D          

 34 37  0  0  0  0            999 V2000
   -5.1659    1.4455    0.0000 C   0  0  0  0  0  0  0  0  0  0  0  0
   -4.3409    1.4455    0.0000 C   0  0  0  0  0  0  0  0  0  0  0  0
   -3.9284    2.1599    0.0000 C   0  0  0  0  0  0  0  0  0  0  0  0
   -3.1034    2.1599    0.0000 N   0  0  0  0  0  0  0  0  0  0  0  0
   -2.6909    1.4455    0.0000 C   0  0  0  0  0  0  0  0  0  0  0  0
   -3.1034    0.7310    0.0000 C   0  0  0  0  0  0  0  0  0  0  0  0
   -3.9284    0.7310    0.0000 C   0  0  0  0  0  0  0  0  0  0  0  0
   -4.3409    0.0165    0.0000 N   0  0  0  0  0  0  0  0  0  0  0  0
   -3.9284   -0.6979    0.0000 C   0  0  0  0  0  0  0  0  0  0  0  0
   -4.3409   -1.4124    0.0000 O   0  0  0  0  0  0  0  0  0  0  0  0
   -3.1034   -0.6979    0.0000 C   0  0  0  0  0  0  0  0  0  0  0  0
   -2.6909    0.0165    0.0000 C   0  0  0  0  0  0  0  0  0  0  0  0
   -1.8659    0.0165    0.0000 C   0  0  0  0  0  0  0  0  0  0  0  0
   -1.4534    0.7310    0.0000 F   0  0  0  0  0  0  0  0  0  0  0  0
   -1.4534   -0.6979    0.0000 C   0  0  0  0  0  0  0  0  0  0  0  0
   -0.6284   -0.6979    0.0000 N   0  0  0  0  0  0  0  0  0  0  0  0
   -0.1435   -1.3654    0.0000 N   0  0  0  0  0  0  0  0  0  0  0  0
    0.6411   -1.1104    0.0000 C   0  0  0  0  0  0  0  0  0  0  0  0
    0.6411   -0.2854    0.0000 N   0  0  0  0  0  0  0  0  0  0  0  0
   -0.1435   -0.0305    0.0000 C   0  0  0  0  0  0  0  0  0  0  0  0
   -0.3984    0.7541    0.0000 O   0  0  0  0  0  0  0  0  0  0  0  0
    1.3556    0.1271    0.0000 C   0  0  0  0  0  0  0  0  0  0  0  0
    2.0701   -0.2854    0.0000 C   0  0  0  0  0  0  0  0  0  0  0  0
    2.0701   -1.1104    0.0000 C   0  0  0  0  0  0  0  0  0  0  0  0
    1.3556   -1.5229    0.0000 C   0  0  0  0  0  0  0  0  0  0  0  0
   -1.8659   -1.4124    0.0000 C   0  0  0  0  0  0  0  0  0  0  0  0
   -2.6909   -1.4124    0.0000 C   0  0  0  0  0  0  0  0  0  0  0  0
   -3.1034   -2.1269    0.0000 O   0  0  0  0  0  0  0  0  0  0  0  0
   -2.6909   -2.8414    0.0000 C   0  0  0  0  0  0  0  0  0  0  0  0
   -1.8659   -2.8414    0.0000 C   0  0  0  0  0  0  0  0  0  0  0  0
   -3.1034   -3.5558    0.0000 C   0  0  0  0  0  0  0  0  0  0  0  0
   -3.8179   -3.1433    0.0000 F   0  0  0  0  0  0  0  0  0  0  0  0
   -2.3890   -3.9683    0.0000 F   0  0  0  0  0  0  0  0  0  0  0  0
   -3.5159   -4.2703    0.0000 F   0  0  0  0  0  0  0  0  0  0  0  0
  1  2  1  0  0  0  0
  2  3  4  0  0  0  0
  3  4  4  0  0  0  0
  4  5  4  0  0  0  0
  5  6  4  0  0  0  0
  6  7  4  0  0  0  0
  2  7  4  0  0  0  0
  7  8  1  0  0  0  0
  8  9  1  0  0  0  0
  9 10  2  0  0  0  0
  9 11  1  0  0  0  0
 11 12  4  0  0  0  0
 12 13  4  0  0  0  0
 13 14  1  0  0  0  0
 13 15  4  0  0  0  0
 15 16  1  0  0  0  0
 16 17  4  0  0  0  0
 17 18  4  0  0  0  0
 18 19  4  0  0  0  0
 19 20  4  0  0  0  0
 16 20  4  0  0  0  0
 20 21  2  0  0  0  0
 19 22  1  0  0  0  0
 22 23  1  0  0  0  0
 23 24  1  0  0  0  0
 24 25  1  0  0  0  0
 18 25  1  0  0  0  0
 15 26  4  0  0  0  0
 26 27  4  0  0  0  0
 11 27  4  0  0  0  0
 27 28  1  0  0  0  0
 28 29  1  0  0  0  0
 29 30  1  0  0  0  0
 29 31  1  0  0  0  0
 31 32  1  0  0  0  0
 31 33  1  0  0  0  0
 31 34  1  0  0  0  0
M  END
> <IC50(uM)>
0.2

> <Outcome>
1.0

> <BindingDB ID>
1020471

> <BindingDB MonomerID>
490419

> <BindingDB Ligand Name>
5-fluoro-N-(3-methylpyridin-4-yl)-4-(3-oxo-5,6,7,8-tetrahydro[1,2,4]triazolo[4,3-a]pyridin-2(3H)-yl)-2-{[(2S)-1,1,1-trifluoropropan-2-yl]oxy}benzamide::US10968216, Example 87

> <Curation/DataSource>
US Patent

> <Article DOI>
?

> <PMID>
?

> <Patent Number>
US10968216

> <Authors>
Gradl, SN; Nguyen, D; Eis, K; Gunther, J; Stellfeld, T; Janzer, A; Christian, S; Mueller, T; Sheikh, SE; Zhou, HJ; Zhao, C; Sykes, DB; Ferrara, SJ; Liu, K; Herbert, SA; Merz, C; Niehues, M; Nising, CF; Schafer, M; Zimmermann, K; Knablein, J; Thede, K; Faupel, T

> <Link to Ligand in BindingDB>
http://www.bindingdb.org/bind/chemsearch/marvin/MolStructure.jsp?monomerid=490419

> <Link to Ligand-Target Pair in BindingDB>
http://www.bindingdb.org/jsp/dbsearch/PrimarySearch_ki.jsp?energyterm=kJ/mole&tag=r21&monomerid=490419&enzyme=Dihydroorotate+dehydrogenase&column=ki&startPg=0&Increment=50&submit=Search

> <PubChem CID>
134473936

> <PubChem SID>
447117146

$$$$

  Mrv2115 07222212352D          

 27 28  0  0  0  0            999 V2000
    1.4289   -6.6000    0.0000 C   0  0  0  0  0  0  0  0  0  0  0  0
    2.1434   -6.1875    0.0000 C   0  0  0  0  0  0  0  0  0  0  0  0
    2.8579   -6.6000    0.0000 C   0  0  0  0  0  0  0  0  0  0  0  0
    2.8579   -7.4250    0.0000 O   0  0  0  0  0  0  0  0  0  0  0  0
    3.5724   -6.1875    0.0000 C   0  0  0  0  0  0  0  0  0  0  0  0
    3.5724   -5.3625    0.0000 C   0  0  0  0  0  0  0  0  0  0  0  0
    3.5724   -4.5375    0.0000 N   0  0  0  0  0  0  0  0  0  0  0  0
    4.2868   -6.6000    0.0000 C   0  0  0  0  0  0  0  0  0  0  0  0
    4.2868   -7.4250    0.0000 O   0  0  0  0  0  0  0  0  0  0  0  0
    5.0013   -6.1875    0.0000 N   0  0  0  0  0  0  0  0  0  0  0  0
    5.7158   -6.6000    0.0000 C   0  0  0  0  0  0  0  0  0  0  0  0
    6.4302   -6.1875    0.0000 C   0  0  0  0  0  0  0  0  0  0  0  0
    7.1447   -6.6000    0.0000 C   0  0  0  0  0  0  0  0  0  0  0  0
    7.1447   -7.4250    0.0000 C   0  0  0  0  0  0  0  0  0  0  0  0
    7.8592   -7.8375    0.0000 C   0  0  0  0  0  0  0  0  0  0  0  0
    8.5737   -7.4250    0.0000 C   0  0  0  0  0  0  0  0  0  0  0  0
    9.2881   -7.8375    0.0000 C   0  0  0  0  0  0  0  0  0  0  0  0
    9.2881   -8.6625    0.0000 C   0  0  0  0  0  0  0  0  0  0  0  0
    8.5737   -9.0750    0.0000 C   0  0  0  0  0  0  0  0  0  0  0  0
    8.5737   -9.9000    0.0000 F   0  0  0  0  0  0  0  0  0  0  0  0
    7.8592   -8.6625    0.0000 C   0  0  0  0  0  0  0  0  0  0  0  0
    6.4302   -7.8375    0.0000 C   0  0  0  0  0  0  0  0  0  0  0  0
    6.4302   -8.6625    0.0000 C   0  0  0  0  0  0  0  0  0  0  0  0
    5.7158   -9.0750    0.0000 O   0  0  0  0  0  0  0  0  0  0  0  0
    7.1447   -9.0750    0.0000 O   0  0  0  0  0  0  0  0  0  0  0  0
    7.1447   -9.9000    0.0000 C   0  0  0  0  0  0  0  0  0  0  0  0
    5.7158   -7.4250    0.0000 C   0  0  0  0  0  0  0  0  0  0  0  0
  1  2  1  0  0  0  0
  2  3  1  0  0  0  0
  3  4  2  0  0  0  0
  3  5  1  0  0  0  0
  5  6  1  0  0  0  0
  6  7  3  0  0  0  0
  5  8  1  0  0  0  0
  8  9  2  0  0  0  0
  8 10  1  0  0  0  0
 10 11  1  0  0  0  0
 11 12  4  0  0  0  0
 12 13  4  0  0  0  0
 13 14  4  0  0  0  0
 14 15  1  0  0  0  0
 15 16  4  0  0  0  0
 16 17  4  0  0  0  0
 17 18  4  0  0  0  0
 18 19  4  0  0  0  0
 19 20  1  0  0  0  0
 19 21  4  0  0  0  0
 15 21  4  0  0  0  0
 14 22  4  0  0  0  0
 22 23  1  0  0  0  0
 23 24  2  0  0  0  0
 23 25  1  0  0  0  0
 25 26  1  0  0  0  0
 22 27  4  0  0  0  0
 11 27  4  0  0  0  0
M  END
> <IC50(uM)>
0.198

> <Outcome>
1.0

> <BindingDB ID>
50707375

> <BindingDB MonomerID>
50359696

> <BindingDB Ligand Name>
CHEMBL1929440

> <Curation/DataSource>
ChEMBL

> <Article DOI>
10.1016/j.bmcl.2011.10.052

> <PMID>
22078215

> <Patent Number>
?

> <Authors>
Erra, M; Moreno, I; Sanahuja, J; Andres, M; Reinoso, RF; Lozoya, E; Pizcueta, P; Godessart, N; Castro-Palomino, JC

> <Link to Ligand in BindingDB>
http://www.bindingdb.org/bind/chemsearch/marvin/MolStructure.jsp?monomerid=50359696

> <Link to Ligand-Target Pair in BindingDB>
http://www.bindingdb.org/jsp/dbsearch/PrimarySearch_ki.jsp?energyterm=kJ/mole&tag=r21&monomerid=50359696&enzyme=Dihydroorotate+dehydrogenase&column=ki&startPg=0&Increment=50&submit=Search

> <PubChem CID>
91930444

> <PubChem SID>
136963720

$$$$

  Mrv2115 07222212352D          

 26 28  0  0  0  0            999 V2000
    2.1434   -2.8875    0.0000 O   0  0  0  0  0  0  0  0  0  0  0  0
    1.4289   -2.4750    0.0000 C   0  0  0  0  0  0  0  0  0  0  0  0
    0.7145   -2.8875    0.0000 O   0  0  0  0  0  0  0  0  0  0  0  0
    1.4289   -1.6500    0.0000 C   0  0  0  0  0  0  0  0  0  0  0  0
    0.7145   -1.2375    0.0000 C   0  0  0  0  0  0  0  0  0  0  0  0
    0.0000   -1.6500    0.0000 O   0  0  0  0  0  0  0  0  0  0  0  0
    0.7145   -0.4125    0.0000 C   0  0  0  0  0  0  0  0  0  0  0  0
    0.0000    0.0000    0.0000 C   0  0  0  0  0  0  0  0  0  0  0  0
   -0.7145   -0.4125    0.0000 C   0  0  0  0  0  0  0  0  0  0  0  0
   -1.4289    0.0000    0.0000 C   0  0  0  0  0  0  0  0  0  0  0  0
   -1.4289    0.8250    0.0000 C   0  0  0  0  0  0  0  0  0  0  0  0
   -2.1434    1.2375    0.0000 Cl  0  0  0  0  0  0  0  0  0  0  0  0
   -0.7145    1.2375    0.0000 C   0  0  0  0  0  0  0  0  0  0  0  0
    0.0000    0.8250    0.0000 C   0  0  0  0  0  0  0  0  0  0  0  0
    1.4289    0.0000    0.0000 N   0  0  0  0  0  0  0  0  0  0  0  0
    2.1434   -0.4125    0.0000 C   0  0  0  0  0  0  0  0  0  0  0  0
    2.8579    0.0000    0.0000 C   0  0  0  0  0  0  0  0  0  0  0  0
    2.8579    0.8250    0.0000 O   0  0  0  0  0  0  0  0  0  0  0  0
    2.1434    1.2375    0.0000 C   0  0  0  0  0  0  0  0  0  0  0  0
    1.4289    1.6500    0.0000 F   0  0  0  0  0  0  0  0  0  0  0  0
    2.5559    1.9520    0.0000 F   0  0  0  0  0  0  0  0  0  0  0  0
    1.7309    0.5230    0.0000 F   0  0  0  0  0  0  0  0  0  0  0  0
    3.5724   -0.4125    0.0000 C   0  0  0  0  0  0  0  0  0  0  0  0
    3.5724   -1.2375    0.0000 C   0  0  0  0  0  0  0  0  0  0  0  0
    2.8579   -1.6500    0.0000 C   0  0  0  0  0  0  0  0  0  0  0  0
    2.1434   -1.2375    0.0000 C   0  0  0  0  0  0  0  0  0  0  0  0
  1  2  2  0  0  0  0
  2  3  1  0  0  0  0
  2  4  1  0  0  0  0
  4  5  4  0  0  0  0
  5  6  1  0  0  0  0
  5  7  4  0  0  0  0
  7  8  1  0  0  0  0
  8  9  4  0  0  0  0
  9 10  4  0  0  0  0
 10 11  4  0  0  0  0
 11 12  1  0  0  0  0
 11 13  4  0  0  0  0
 13 14  4  0  0  0  0
  8 14  4  0  0  0  0
  7 15  4  0  0  0  0
 15 16  4  0  0  0  0
 16 17  4  0  0  0  0
 17 18  1  0  0  0  0
 18 19  1  0  0  0  0
 19 20  1  0  0  0  0
 19 21  1  0  0  0  0
 19 22  1  0  0  0  0
 17 23  4  0  0  0  0
 23 24  4  0  0  0  0
 24 25  4  0  0  0  0
 25 26  4  0  0  0  0
  4 26  4  0  0  0  0
 16 26  4  0  0  0  0
M  END
> <IC50(uM)>
130.0

> <Outcome>
0.0

> <BindingDB ID>
50841915

> <BindingDB MonomerID>
50201933

> <BindingDB Ligand Name>
2-(4-chlorophenyl)-3-hydroxy-8-(trifluoromethoxy)quinoline-4-carboxylic acid::CHEMBL218083

> <Curation/DataSource>
ChEMBL

> <Article DOI>
10.1021/jm0602256

> <PMID>
17201408

> <Patent Number>
?

> <Authors>
Kaila, N; Janz, K; DeBernardo, S; Bedard, PW; Camphausen, RT; Tam, S; Tsao, DH; Keith, JC; Nickerson-Nutter, C; Shilling, A; Young-Sciame, R; Wang, Q

> <Link to Ligand in BindingDB>
http://www.bindingdb.org/bind/chemsearch/marvin/MolStructure.jsp?monomerid=50201933

> <Link to Ligand-Target Pair in BindingDB>
http://www.bindingdb.org/jsp/dbsearch/PrimarySearch_ki.jsp?energyterm=kJ/mole&tag=r21&monomerid=50201933&enzyme=Dihydroorotate+dehydrogenase&column=ki&startPg=0&Increment=50&submit=Search

> <PubChem CID>
16100004

> <PubChem SID>
104081584

$$$$

  Mrv2115 07222212352D          

 28 28  0  0  0  0            999 V2000
    1.4289   -4.1250    0.0000 C   0  0  0  0  0  0  0  0  0  0  0  0
    2.1434   -3.7125    0.0000 C   0  0  0  0  0  0  0  0  0  0  0  0
    2.8579   -4.1250    0.0000 C   0  0  0  0  0  0  0  0  0  0  0  0
    2.8579   -4.9500    0.0000 O   0  0  0  0  0  0  0  0  0  0  0  0
    3.5724   -3.7125    0.0000 C   0  0  0  0  0  0  0  0  0  0  0  0
    3.5724   -2.8875    0.0000 C   0  0  0  0  0  0  0  0  0  0  0  0
    3.5724   -2.0625    0.0000 N   0  0  0  0  0  0  0  0  0  0  0  0
    4.2868   -4.1250    0.0000 C   0  0  0  0  0  0  0  0  0  0  0  0
    4.2868   -4.9500    0.0000 O   0  0  0  0  0  0  0  0  0  0  0  0
    5.0013   -3.7125    0.0000 N   0  0  0  0  0  0  0  0  0  0  0  0
    5.7158   -4.1250    0.0000 C   0  0  0  0  0  0  0  0  0  0  0  0
    6.4302   -3.7125    0.0000 C   0  0  0  0  0  0  0  0  0  0  0  0
    7.1447   -4.1250    0.0000 C   0  0  0  0  0  0  0  0  0  0  0  0
    7.1447   -4.9500    0.0000 C   0  0  0  0  0  0  0  0  0  0  0  0
    7.8592   -5.3625    0.0000 O   0  0  0  0  0  0  0  0  0  0  0  0
    8.5737   -4.9500    0.0000 S   0  0  0  0  0  0  0  0  0  0  0  0
    8.9862   -5.6645    0.0000 O   0  0  0  0  0  0  0  0  0  0  0  0
    8.1612   -4.2355    0.0000 O   0  0  0  0  0  0  0  0  0  0  0  0
    9.2881   -4.5375    0.0000 C   0  0  0  0  0  0  0  0  0  0  0  0
   10.0026   -4.1250    0.0000 F   0  0  0  0  0  0  0  0  0  0  0  0
    9.7006   -5.2520    0.0000 F   0  0  0  0  0  0  0  0  0  0  0  0
    8.8756   -3.8230    0.0000 F   0  0  0  0  0  0  0  0  0  0  0  0
    6.4302   -5.3625    0.0000 C   0  0  0  0  0  0  0  0  0  0  0  0
    6.4302   -6.1875    0.0000 C   0  0  0  0  0  0  0  0  0  0  0  0
    5.7158   -6.6000    0.0000 O   0  0  0  0  0  0  0  0  0  0  0  0
    7.1447   -6.6000    0.0000 O   0  0  0  0  0  0  0  0  0  0  0  0
    7.1447   -7.4250    0.0000 C   0  0  0  0  0  0  0  0  0  0  0  0
    5.7158   -4.9500    0.0000 C   0  0  0  0  0  0  0  0  0  0  0  0
  1  2  1  0  0  0  0
  2  3  1  0  0  0  0
  3  4  2  0  0  0  0
  3  5  1  0  0  0  0
  5  6  1  0  0  0  0
  6  7  3  0  0  0  0
  5  8  1  0  0  0  0
  8  9  2  0  0  0  0
  8 10  1  0  0  0  0
 10 11  1  0  0  0  0
 11 12  4  0  0  0  0
 12 13  4  0  0  0  0
 13 14  4  0  0  0  0
 14 15  1  0  0  0  0
 15 16  1  0  0  0  0
 16 17  2  0  0  0  0
 16 18  2  0  0  0  0
 16 19  1  0  0  0  0
 19 20  1  0  0  0  0
 19 21  1  0  0  0  0
 19 22  1  0  0  0  0
 14 23  4  0  0  0  0
 23 24  1  0  0  0  0
 24 25  2  0  0  0  0
 24 26  1  0  0  0  0
 26 27  1  0  0  0  0
 23 28  4  0  0  0  0
 11 28  4  0  0  0  0
M  END
> <IC50(uM)>
0.093

> <Outcome>
1.0

> <BindingDB ID>
50707368

> <BindingDB MonomerID>
50359689

> <BindingDB Ligand Name>
CHEMBL1929433

> <Curation/DataSource>
ChEMBL

> <Article DOI>
10.1016/j.bmcl.2011.10.052

> <PMID>
22078215

> <Patent Number>
?

> <Authors>
Erra, M; Moreno, I; Sanahuja, J; Andres, M; Reinoso, RF; Lozoya, E; Pizcueta, P; Godessart, N; Castro-Palomino, JC

> <Link to Ligand in BindingDB>
http://www.bindingdb.org/bind/chemsearch/marvin/MolStructure.jsp?monomerid=50359689

> <Link to Ligand-Target Pair in BindingDB>
http://www.bindingdb.org/jsp/dbsearch/PrimarySearch_ki.jsp?energyterm=kJ/mole&tag=r21&monomerid=50359689&enzyme=Dihydroorotate+dehydrogenase&column=ki&startPg=0&Increment=50&submit=Search

> <PubChem CID>
91930437

> <PubChem SID>
136963713

$$$$

  Mrv2115 07222212352D          

 31 34  0  0  0  0            999 V2000
   -0.7145   -0.4125    0.0000 O   0  0  0  0  0  0  0  0  0  0  0  0
   -1.4289    0.0000    0.0000 C   0  0  0  0  0  0  0  0  0  0  0  0
   -2.1434   -0.4125    0.0000 O   0  0  0  0  0  0  0  0  0  0  0  0
   -2.1434   -1.2375    0.0000 C   0  0  0  0  0  0  0  0  0  0  0  0
   -2.8579   -1.6500    0.0000 C   0  0  0  0  0  0  0  0  0  0  0  0
   -2.8579   -2.4750    0.0000 C   0  0  0  0  0  0  0  0  0  0  0  0
   -3.5724   -2.8875    0.0000 C   0  0  0  0  0  0  0  0  0  0  0  0
   -4.2868   -2.4750    0.0000 C   0  0  0  0  0  0  0  0  0  0  0  0
   -4.2868   -1.6500    0.0000 C   0  0  0  0  0  0  0  0  0  0  0  0
   -3.5724   -1.2375    0.0000 C   0  0  0  0  0  0  0  0  0  0  0  0
   -1.4289    0.8250    0.0000 C   0  0  0  0  0  0  0  0  0  0  0  0
   -2.1434    1.2375    0.0000 C   0  0  0  0  0  0  0  0  0  0  0  0
   -2.1434    2.0625    0.0000 C   0  0  0  0  0  0  0  0  0  0  0  0
   -1.4289    2.4750    0.0000 C   0  0  0  0  0  0  0  0  0  0  0  0
   -0.7145    2.0625    0.0000 C   0  0  0  0  0  0  0  0  0  0  0  0
   -0.7145    1.2375    0.0000 C   0  0  0  0  0  0  0  0  0  0  0  0
    0.0000    0.8250    0.0000 C   0  0  0  0  0  0  0  0  0  0  0  0
    0.0000    0.0000    0.0000 N   0  0  0  0  0  0  0  0  0  0  0  0
    0.7145   -0.4125    0.0000 N   0  0  0  0  0  0  0  0  0  0  0  0
    0.7145   -1.2375    0.0000 C   0  0  0  0  0  0  0  0  0  0  0  0
    1.3819   -1.7224    0.0000 N   0  0  0  0  0  0  0  0  0  0  0  0
    1.1270   -2.5070    0.0000 C   0  0  0  0  0  0  0  0  0  0  0  0
    1.6119   -3.1745    0.0000 C   0  0  0  0  0  0  0  0  0  0  0  0
    2.4324   -3.0882    0.0000 C   0  0  0  0  0  0  0  0  0  0  0  0
    2.9173   -3.7557    0.0000 C   0  0  0  0  0  0  0  0  0  0  0  0
    2.5817   -4.5094    0.0000 C   0  0  0  0  0  0  0  0  0  0  0  0
    1.7613   -4.5956    0.0000 C   0  0  0  0  0  0  0  0  0  0  0  0
    1.2763   -3.9282    0.0000 C   0  0  0  0  0  0  0  0  0  0  0  0
    0.4559   -4.0144    0.0000 Cl  0  0  0  0  0  0  0  0  0  0  0  0
    0.3020   -2.5070    0.0000 C   0  0  0  0  0  0  0  0  0  0  0  0
    0.0470   -1.7224    0.0000 S   0  0  0  0  0  0  0  0  0  0  0  0
  1  2  2  0  0  0  0
  2  3  1  0  0  0  0
  3  4  1  0  0  0  0
  4  5  1  0  0  0  0
  5  6  4  0  0  0  0
  6  7  4  0  0  0  0
  7  8  4  0  0  0  0
  8  9  4  0  0  0  0
  9 10  4  0  0  0  0
  5 10  4  0  0  0  0
  2 11  1  0  0  0  0
 11 12  4  0  0  0  0
 12 13  4  0  0  0  0
 13 14  4  0  0  0  0
 14 15  4  0  0  0  0
 15 16  4  0  0  0  0
 11 16  4  0  0  0  0
 16 17  1  0  0  0  0
 17 18  2  0  0  0  0
 18 19  1  0  0  0  0
 19 20  1  0  0  0  0
 20 21  4  0  0  0  0
 21 22  4  0  0  0  0
 22 23  1  0  0  0  0
 23 24  4  0  0  0  0
 24 25  4  0  0  0  0
 25 26  4  0  0  0  0
 26 27  4  0  0  0  0
 27 28  4  0  0  0  0
 23 28  4  0  0  0  0
 28 29  1  0  0  0  0
 22 30  4  0  0  0  0
 30 31  4  0  0  0  0
 20 31  4  0  0  0  0
M  END
> <IC50(uM)>
50.0

> <Outcome>
0.0

> <BindingDB ID>
1001145

> <BindingDB MonomerID>
482831

> <BindingDB Ligand Name>
US10919869, No.  A11

> <Curation/DataSource>
US Patent

> <Article DOI>
?

> <PMID>
?

> <Patent Number>
US10919869

> <Authors>
Li, H; Xu, Y; Wang, R; Zhao, Z; Song, W; Xu, L

> <Link to Ligand in BindingDB>
http://www.bindingdb.org/bind/chemsearch/marvin/MolStructure.jsp?monomerid=482831

> <Link to Ligand-Target Pair in BindingDB>
http://www.bindingdb.org/jsp/dbsearch/PrimarySearch_ki.jsp?energyterm=kJ/mole&tag=r21&monomerid=482831&enzyme=Dihydroorotate+dehydrogenase&column=ki&startPg=0&Increment=50&submit=Search

> <PubChem CID>
132158007

> <PubChem SID>
443551971

$$$$

  Mrv2115 07222212352D          

 23 25  0  0  0  0            999 V2000
   -0.7145   -1.2375    0.0000 C   0  0  0  0  0  0  0  0  0  0  0  0
    0.0000   -1.6500    0.0000 O   0  0  0  0  0  0  0  0  0  0  0  0
    0.7145   -1.2375    0.0000 C   0  0  0  0  0  0  0  0  0  0  0  0
    0.7145   -0.4125    0.0000 C   0  0  0  0  0  0  0  0  0  0  0  0
    1.4289    0.0000    0.0000 C   0  0  0  0  0  0  0  0  0  0  0  0
    2.1434   -0.4125    0.0000 C   0  0  0  0  0  0  0  0  0  0  0  0
    2.8579    0.0000    0.0000 C   0  0  0  0  0  0  0  0  0  0  0  0
    2.8579    0.8250    0.0000 C   0  0  0  0  0  0  0  0  0  0  0  0
    3.5724    1.2375    0.0000 O   0  0  0  0  0  0  0  0  0  0  0  0
    2.1434    1.2375    0.0000 O   0  0  0  0  0  0  0  0  0  0  0  0
    3.5724   -0.4125    0.0000 C   0  0  0  0  0  0  0  0  0  0  0  0
    4.2868   -0.0000    0.0000 O   0  0  0  0  0  0  0  0  0  0  0  0
    3.5724   -1.2375    0.0000 C   0  0  0  0  0  0  0  0  0  0  0  0
    4.2868   -1.6500    0.0000 C   0  0  0  0  0  0  0  0  0  0  0  0
    5.0013   -1.2375    0.0000 C   0  0  0  0  0  0  0  0  0  0  0  0
    5.7158   -1.6500    0.0000 C   0  0  0  0  0  0  0  0  0  0  0  0
    5.7158   -2.4750    0.0000 C   0  0  0  0  0  0  0  0  0  0  0  0
    6.4302   -2.8875    0.0000 Cl  0  0  0  0  0  0  0  0  0  0  0  0
    5.0013   -2.8875    0.0000 C   0  0  0  0  0  0  0  0  0  0  0  0
    4.2868   -2.4750    0.0000 C   0  0  0  0  0  0  0  0  0  0  0  0
    2.8579   -1.6500    0.0000 N   0  0  0  0  0  0  0  0  0  0  0  0
    2.1434   -1.2375    0.0000 C   0  0  0  0  0  0  0  0  0  0  0  0
    1.4289   -1.6500    0.0000 C   0  0  0  0  0  0  0  0  0  0  0  0
  1  2  1  0  0  0  0
  2  3  1  0  0  0  0
  3  4  4  0  0  0  0
  4  5  4  0  0  0  0
  5  6  4  0  0  0  0
  6  7  4  0  0  0  0
  7  8  1  0  0  0  0
  8  9  2  0  0  0  0
  8 10  1  0  0  0  0
  7 11  4  0  0  0  0
 11 12  1  0  0  0  0
 11 13  4  0  0  0  0
 13 14  1  0  0  0  0
 14 15  4  0  0  0  0
 15 16  4  0  0  0  0
 16 17  4  0  0  0  0
 17 18  1  0  0  0  0
 17 19  4  0  0  0  0
 19 20  4  0  0  0  0
 14 20  4  0  0  0  0
 13 21  4  0  0  0  0
 21 22  4  0  0  0  0
  6 22  4  0  0  0  0
 22 23  4  0  0  0  0
  3 23  4  0  0  0  0
M  END
> <IC50(uM)>
151.0

> <Outcome>
0.0

> <BindingDB ID>
50841911

> <BindingDB MonomerID>
50201935

> <BindingDB Ligand Name>
2-(4-chlorophenyl)-3-hydroxy-7-methoxyquinoline-4-carboxylate::CHEMBL219233

> <Curation/DataSource>
ChEMBL

> <Article DOI>
10.1021/jm0602256

> <PMID>
17201408

> <Patent Number>
?

> <Authors>
Kaila, N; Janz, K; DeBernardo, S; Bedard, PW; Camphausen, RT; Tam, S; Tsao, DH; Keith, JC; Nickerson-Nutter, C; Shilling, A; Young-Sciame, R; Wang, Q

> <Link to Ligand in BindingDB>
http://www.bindingdb.org/bind/chemsearch/marvin/MolStructure.jsp?monomerid=50201935

> <Link to Ligand-Target Pair in BindingDB>
http://www.bindingdb.org/jsp/dbsearch/PrimarySearch_ki.jsp?energyterm=kJ/mole&tag=r21&monomerid=50201935&enzyme=Dihydroorotate+dehydrogenase&column=ki&startPg=0&Increment=50&submit=Search

> <PubChem CID>
16099900

> <PubChem SID>
104081586

$$$$

  Mrv2115 07222212352D          

 33 36  0  0  0  0            999 V2000
    3.9934    2.4750    0.0000 O   0  0  0  0  0  0  0  0  0  0  0  0
    3.2789    2.0625    0.0000 C   0  0  0  0  0  0  0  0  0  0  0  0
    2.5645    2.4750    0.0000 O   0  0  0  0  0  0  0  0  0  0  0  0
    3.2789    1.2375    0.0000 C   0  0  0  0  0  0  0  0  0  0  0  0
    3.9934    0.8250    0.0000 C   0  0  0  0  0  0  0  0  0  0  0  0
    3.9934    0.0000    0.0000 C   0  0  0  0  0  0  0  0  0  0  0  0
    3.2789   -0.4125    0.0000 C   0  0  0  0  0  0  0  0  0  0  0  0
    2.5645    0.0000    0.0000 C   0  0  0  0  0  0  0  0  0  0  0  0
    1.7798   -0.2549    0.0000 N   0  0  0  0  0  0  0  0  0  0  0  0
    1.2949    0.4125    0.0000 C   0  0  0  0  0  0  0  0  0  0  0  0
    0.4699    0.4125    0.0000 C   0  0  0  0  0  0  0  0  0  0  0  0
    0.0574   -0.3020    0.0000 C   0  0  0  0  0  0  0  0  0  0  0  0
    0.4699   -1.0164    0.0000 F   0  0  0  0  0  0  0  0  0  0  0  0
   -0.7676   -0.3020    0.0000 C   0  0  0  0  0  0  0  0  0  0  0  0
   -1.1801   -1.0164    0.0000 F   0  0  0  0  0  0  0  0  0  0  0  0
   -1.1801    0.4125    0.0000 C   0  0  0  0  0  0  0  0  0  0  0  0
   -2.0051    0.4125    0.0000 C   0  0  0  0  0  0  0  0  0  0  0  0
   -2.4176   -0.3020    0.0000 C   0  0  0  0  0  0  0  0  0  0  0  0
   -3.2426   -0.3020    0.0000 C   0  0  0  0  0  0  0  0  0  0  0  0
   -3.6551    0.4125    0.0000 C   0  0  0  0  0  0  0  0  0  0  0  0
   -3.2426    1.1270    0.0000 C   0  0  0  0  0  0  0  0  0  0  0  0
   -3.6551    1.8414    0.0000 O   0  0  0  0  0  0  0  0  0  0  0  0
   -4.4801    1.8414    0.0000 C   0  0  0  0  0  0  0  0  0  0  0  0
   -5.3051    1.8414    0.0000 F   0  0  0  0  0  0  0  0  0  0  0  0
   -4.4801    2.6664    0.0000 F   0  0  0  0  0  0  0  0  0  0  0  0
   -4.4801    1.0164    0.0000 F   0  0  0  0  0  0  0  0  0  0  0  0
   -2.4176    1.1270    0.0000 C   0  0  0  0  0  0  0  0  0  0  0  0
   -0.7676    1.1270    0.0000 C   0  0  0  0  0  0  0  0  0  0  0  0
   -1.1801    1.8414    0.0000 F   0  0  0  0  0  0  0  0  0  0  0  0
    0.0574    1.1270    0.0000 C   0  0  0  0  0  0  0  0  0  0  0  0
    0.4699    1.8414    0.0000 F   0  0  0  0  0  0  0  0  0  0  0  0
    1.7798    1.0799    0.0000 N   0  0  0  0  0  0  0  0  0  0  0  0
    2.5645    0.8250    0.0000 C   0  0  0  0  0  0  0  0  0  0  0  0
  1  2  2  0  0  0  0
  2  3  1  0  0  0  0
  2  4  1  0  0  0  0
  4  5  4  0  0  0  0
  5  6  4  0  0  0  0
  6  7  4  0  0  0  0
  7  8  4  0  0  0  0
  8  9  4  0  0  0  0
  9 10  4  0  0  0  0
 10 11  1  0  0  0  0
 11 12  4  0  0  0  0
 12 13  1  0  0  0  0
 12 14  4  0  0  0  0
 14 15  1  0  0  0  0
 14 16  4  0  0  0  0
 16 17  1  0  0  0  0
 17 18  4  0  0  0  0
 18 19  4  0  0  0  0
 19 20  4  0  0  0  0
 20 21  4  0  0  0  0
 21 22  1  0  0  0  0
 22 23  1  0  0  0  0
 23 24  1  0  0  0  0
 23 25  1  0  0  0  0
 23 26  1  0  0  0  0
 21 27  4  0  0  0  0
 17 27  4  0  0  0  0
 16 28  4  0  0  0  0
 28 29  1  0  0  0  0
 28 30  4  0  0  0  0
 11 30  4  0  0  0  0
 30 31  1  0  0  0  0
 10 32  4  0  0  0  0
 32 33  4  0  0  0  0
  4 33  4  0  0  0  0
  8 33  4  0  0  0  0
M  STY  1   1 DAT
M  SAL   1  1   9
M  SDT   1 MRV_IMPLICIT_H                                        
M  SDD   1     0.5304   -0.4125    DR    ALL  0       0  
M  SED   1 IMPL_H1
M  END
> <IC50(uM)>
0.218

> <Outcome>
1.0

> <BindingDB ID>
297850

> <BindingDB MonomerID>
155506

> <BindingDB Ligand Name>
US9006454, I148

> <Curation/DataSource>
US Patent

> <Article DOI>
?

> <PMID>
?

> <Patent Number>
US9006454

> <Authors>
Thunuguntla, SS; Subramanya, H; Kunnam, SR; Sanivaru Vijay, SR; Bingi, C; Kusanur, R; Schwarz, M; Arlt, M

> <Link to Ligand in BindingDB>
http://www.bindingdb.org/bind/chemsearch/marvin/MolStructure.jsp?monomerid=155506

> <Link to Ligand-Target Pair in BindingDB>
http://www.bindingdb.org/jsp/dbsearch/PrimarySearch_ki.jsp?energyterm=kJ/mole&tag=r21&monomerid=155506&enzyme=Dihydroorotate+dehydrogenase&column=ki&startPg=0&Increment=50&submit=Search

> <PubChem CID>
58073829

> <PubChem SID>
253658443

$$$$

  Mrv2115 07222212352D          

 22 24  0  0  0  0            999 V2000
    0.0000   -1.6500    0.0000 C   0  0  0  0  0  0  0  0  0  0  0  0
    0.7145   -1.2375    0.0000 C   0  0  0  0  0  0  0  0  0  0  0  0
    0.7145   -0.4125    0.0000 C   0  0  0  0  0  0  0  0  0  0  0  0
    1.4289    0.0000    0.0000 C   0  0  0  0  0  0  0  0  0  0  0  0
    2.1434   -0.4125    0.0000 C   0  0  0  0  0  0  0  0  0  0  0  0
    2.8579    0.0000    0.0000 N   0  0  0  0  0  0  0  0  0  0  0  0
    3.5724   -0.4125    0.0000 C   0  0  0  0  0  0  0  0  0  0  0  0
    4.2868   -0.0000    0.0000 C   0  0  0  0  0  0  0  0  0  0  0  0
    4.2868    0.8250    0.0000 C   0  0  0  0  0  0  0  0  0  0  0  0
    5.0013    1.2375    0.0000 C   0  0  0  0  0  0  0  0  0  0  0  0
    5.7158    0.8250    0.0000 C   0  0  0  0  0  0  0  0  0  0  0  0
    6.4302    1.2375    0.0000 Cl  0  0  0  0  0  0  0  0  0  0  0  0
    5.7158   -0.0000    0.0000 C   0  0  0  0  0  0  0  0  0  0  0  0
    5.0013   -0.4125    0.0000 C   0  0  0  0  0  0  0  0  0  0  0  0
    3.5724   -1.2375    0.0000 C   0  0  0  0  0  0  0  0  0  0  0  0
    4.2868   -1.6500    0.0000 O   0  0  0  0  0  0  0  0  0  0  0  0
    2.8579   -1.6500    0.0000 C   0  0  0  0  0  0  0  0  0  0  0  0
    2.8579   -2.4750    0.0000 C   0  0  0  0  0  0  0  0  0  0  0  0
    2.1434   -2.8875    0.0000 O   0  0  0  0  0  0  0  0  0  0  0  0
    3.5724   -2.8875    0.0000 O   0  0  0  0  0  0  0  0  0  0  0  0
    2.1434   -1.2375    0.0000 C   0  0  0  0  0  0  0  0  0  0  0  0
    1.4289   -1.6500    0.0000 C   0  0  0  0  0  0  0  0  0  0  0  0
  1  2  1  0  0  0  0
  2  3  4  0  0  0  0
  3  4  4  0  0  0  0
  4  5  4  0  0  0  0
  5  6  4  0  0  0  0
  6  7  4  0  0  0  0
  7  8  1  0  0  0  0
  8  9  4  0  0  0  0
  9 10  4  0  0  0  0
 10 11  4  0  0  0  0
 11 12  1  0  0  0  0
 11 13  4  0  0  0  0
 13 14  4  0  0  0  0
  8 14  4  0  0  0  0
  7 15  4  0  0  0  0
 15 16  1  0  0  0  0
 15 17  4  0  0  0  0
 17 18  1  0  0  0  0
 18 19  2  0  0  0  0
 18 20  1  0  0  0  0
 17 21  4  0  0  0  0
  5 21  4  0  0  0  0
 21 22  4  0  0  0  0
  2 22  4  0  0  0  0
M  END
> <IC50(uM)>
0.217

> <Outcome>
1.0

> <BindingDB ID>
50841929

> <BindingDB MonomerID>
50201940

> <BindingDB Ligand Name>
2-(4-chlorophenyl)-3-hydroxy-6-methylquinoline-4-carboxylicacid::CHEMBL217918

> <Curation/DataSource>
ChEMBL

> <Article DOI>
10.1021/jm0602256

> <PMID>
17201408

> <Patent Number>
?

> <Authors>
Kaila, N; Janz, K; DeBernardo, S; Bedard, PW; Camphausen, RT; Tam, S; Tsao, DH; Keith, JC; Nickerson-Nutter, C; Shilling, A; Young-Sciame, R; Wang, Q

> <Link to Ligand in BindingDB>
http://www.bindingdb.org/bind/chemsearch/marvin/MolStructure.jsp?monomerid=50201940

> <Link to Ligand-Target Pair in BindingDB>
http://www.bindingdb.org/jsp/dbsearch/PrimarySearch_ki.jsp?energyterm=kJ/mole&tag=r21&monomerid=50201940&enzyme=Dihydroorotate+dehydrogenase&column=ki&startPg=0&Increment=50&submit=Search

> <PubChem CID>
14498165

> <PubChem SID>
104081591

$$$$

  Mrv2115 07222212352D          

 30 33  0  0  0  0            999 V2000
    3.2789    2.0625    0.0000 C   0  0  0  0  0  0  0  0  0  0  0  0
    3.2789    1.2375    0.0000 C   0  0  0  0  0  0  0  0  0  0  0  0
    3.9934    0.8250    0.0000 C   0  0  0  0  0  0  0  0  0  0  0  0
    3.9934    0.0000    0.0000 C   0  0  0  0  0  0  0  0  0  0  0  0
    3.2789   -0.4125    0.0000 C   0  0  0  0  0  0  0  0  0  0  0  0
    2.5645    0.0000    0.0000 C   0  0  0  0  0  0  0  0  0  0  0  0
    1.7798   -0.2549    0.0000 C   0  0  0  0  0  0  0  0  0  0  0  0
    1.5249   -1.0396    0.0000 C   0  0  0  0  0  0  0  0  0  0  0  0
    0.7179   -1.2111    0.0000 O   0  0  0  0  0  0  0  0  0  0  0  0
    2.0769   -1.6527    0.0000 N   0  0  0  0  0  0  0  0  0  0  0  0
    1.8220   -2.4373    0.0000 C   0  0  0  0  0  0  0  0  0  0  0  0
    2.3740   -3.0504    0.0000 C   0  0  0  0  0  0  0  0  0  0  0  0
    3.1810   -2.8788    0.0000 F   0  0  0  0  0  0  0  0  0  0  0  0
    2.1191   -3.8350    0.0000 C   0  0  0  0  0  0  0  0  0  0  0  0
    2.6711   -4.4481    0.0000 F   0  0  0  0  0  0  0  0  0  0  0  0
    1.3121   -4.0065    0.0000 C   0  0  0  0  0  0  0  0  0  0  0  0
    1.0572   -4.7911    0.0000 C   0  0  0  0  0  0  0  0  0  0  0  0
    1.6092   -5.4042    0.0000 C   0  0  0  0  0  0  0  0  0  0  0  0
    1.3543   -6.1889    0.0000 C   0  0  0  0  0  0  0  0  0  0  0  0
    0.5473   -6.3604    0.0000 C   0  0  0  0  0  0  0  0  0  0  0  0
   -0.0047   -5.7473    0.0000 C   0  0  0  0  0  0  0  0  0  0  0  0
    0.2502   -4.9627    0.0000 C   0  0  0  0  0  0  0  0  0  0  0  0
    0.7601   -3.3934    0.0000 C   0  0  0  0  0  0  0  0  0  0  0  0
   -0.0469   -3.5650    0.0000 F   0  0  0  0  0  0  0  0  0  0  0  0
    1.0150   -2.6088    0.0000 C   0  0  0  0  0  0  0  0  0  0  0  0
    0.4630   -1.9957    0.0000 F   0  0  0  0  0  0  0  0  0  0  0  0
    1.2949    0.4125    0.0000 C   0  0  0  0  0  0  0  0  0  0  0  0
    0.4699    0.4125    0.0000 O   0  0  0  0  0  0  0  0  0  0  0  0
    1.7798    1.0799    0.0000 N   0  0  0  0  0  0  0  0  0  0  0  0
    2.5645    0.8250    0.0000 N   0  0  0  0  0  0  0  0  0  0  0  0
  1  2  1  0  0  0  0
  2  3  4  0  0  0  0
  3  4  4  0  0  0  0
  4  5  4  0  0  0  0
  5  6  4  0  0  0  0
  6  7  4  0  0  0  0
  7  8  1  0  0  0  0
  8  9  2  0  0  0  0
  8 10  1  0  0  0  0
 10 11  1  0  0  0  0
 11 12  4  0  0  0  0
 12 13  1  0  0  0  0
 12 14  4  0  0  0  0
 14 15  1  0  0  0  0
 14 16  4  0  0  0  0
 16 17  1  0  0  0  0
 17 18  4  0  0  0  0
 18 19  4  0  0  0  0
 19 20  4  0  0  0  0
 20 21  4  0  0  0  0
 21 22  4  0  0  0  0
 17 22  4  0  0  0  0
 16 23  4  0  0  0  0
 23 24  1  0  0  0  0
 23 25  4  0  0  0  0
 11 25  4  0  0  0  0
 25 26  1  0  0  0  0
  7 27  4  0  0  0  0
 27 28  1  0  0  0  0
 27 29  4  0  0  0  0
 29 30  4  0  0  0  0
  2 30  4  0  0  0  0
  6 30  4  0  0  0  0
M  END
> <IC50(uM)>
0.0043

> <Outcome>
1.0

> <BindingDB ID>
50990484

> <BindingDB MonomerID>
50281170

> <BindingDB Ligand Name>
CHEMBL4165923

> <Curation/DataSource>
ChEMBL

> <Article DOI>
10.1021/acs.jmedchem.8b00373

> <PMID>
29939742

> <Patent Number>
?

> <Authors>
Sainas, S; Pippione, AC; Lupino, E; Giorgis, M; Circosta, P; Gaidano, V; Goyal, P; Bonanni, D; Rolando, B; Cignetti, A; Ducime, A; Andersson, M; J??rv??, M; Friemann, R; Piccinini, M; Ramondetti, C; Buccinn??, B; Al-Karadaghi, S; Boschi, D; Saglio, G; Lolli, ML

> <Link to Ligand in BindingDB>
http://www.bindingdb.org/bind/chemsearch/marvin/MolStructure.jsp?monomerid=50281170

> <Link to Ligand-Target Pair in BindingDB>
http://www.bindingdb.org/jsp/dbsearch/PrimarySearch_ki.jsp?energyterm=kJ/mole&tag=r21&monomerid=50281170&enzyme=Dihydroorotate+dehydrogenase&column=ki&startPg=0&Increment=50&submit=Search

> <PubChem CID>
145955655

> <PubChem SID>
104122874

$$$$

  Mrv2115 07222212352D          

 25 28  0  0  0  0            999 V2000
    4.0668    2.3479    0.0000 C   0  0  0  0  0  0  0  0  0  0  0  0
    3.3523    1.9354    0.0000 C   0  0  0  0  0  0  0  0  0  0  0  0
    3.3523    1.1104    0.0000 C   0  0  0  0  0  0  0  0  0  0  0  0
    2.6378    0.6979    0.0000 C   0  0  0  0  0  0  0  0  0  0  0  0
    2.6378   -0.1271    0.0000 C   0  0  0  0  0  0  0  0  0  0  0  0
    1.9233   -0.5396    0.0000 O   0  0  0  0  0  0  0  0  0  0  0  0
    3.3523   -0.5396    0.0000 O   0  0  0  0  0  0  0  0  0  0  0  0
    1.9233    1.1104    0.0000 C   0  0  0  0  0  0  0  0  0  0  0  0
    1.1387    0.8555    0.0000 N   0  0  0  0  0  0  0  0  0  0  0  0
    0.6538    1.5229    0.0000 C   0  0  0  0  0  0  0  0  0  0  0  0
   -0.1712    1.5229    0.0000 C   0  0  0  0  0  0  0  0  0  0  0  0
   -0.5837    0.8085    0.0000 C   0  0  0  0  0  0  0  0  0  0  0  0
   -1.4087    0.8085    0.0000 C   0  0  0  0  0  0  0  0  0  0  0  0
   -1.8212    1.5229    0.0000 C   0  0  0  0  0  0  0  0  0  0  0  0
   -2.6462    1.5229    0.0000 C   0  0  0  0  0  0  0  0  0  0  0  0
   -3.0587    0.8085    0.0000 C   0  0  0  0  0  0  0  0  0  0  0  0
   -3.8837    0.8085    0.0000 C   0  0  0  0  0  0  0  0  0  0  0  0
   -4.2962    1.5229    0.0000 C   0  0  0  0  0  0  0  0  0  0  0  0
   -3.8837    2.2374    0.0000 C   0  0  0  0  0  0  0  0  0  0  0  0
   -3.0587    2.2374    0.0000 C   0  0  0  0  0  0  0  0  0  0  0  0
   -1.4087    2.2374    0.0000 C   0  0  0  0  0  0  0  0  0  0  0  0
   -0.5837    2.2374    0.0000 N   0  0  0  0  0  0  0  0  0  0  0  0
    1.1387    2.1904    0.0000 N   0  0  0  0  0  0  0  0  0  0  0  0
    1.9233    1.9354    0.0000 C   0  0  0  0  0  0  0  0  0  0  0  0
    2.6378    2.3479    0.0000 C   0  0  0  0  0  0  0  0  0  0  0  0
  1  2  1  0  0  0  0
  2  3  4  0  0  0  0
  3  4  4  0  0  0  0
  4  5  1  0  0  0  0
  5  6  2  0  0  0  0
  5  7  1  0  0  0  0
  4  8  4  0  0  0  0
  8  9  4  0  0  0  0
  9 10  4  0  0  0  0
 10 11  1  0  0  0  0
 11 12  4  0  0  0  0
 12 13  4  0  0  0  0
 13 14  4  0  0  0  0
 14 15  1  0  0  0  0
 15 16  4  0  0  0  0
 16 17  4  0  0  0  0
 17 18  4  0  0  0  0
 18 19  4  0  0  0  0
 19 20  4  0  0  0  0
 15 20  4  0  0  0  0
 14 21  4  0  0  0  0
 21 22  4  0  0  0  0
 11 22  4  0  0  0  0
 10 23  4  0  0  0  0
 23 24  4  0  0  0  0
  8 24  4  0  0  0  0
 24 25  4  0  0  0  0
  2 25  4  0  0  0  0
M  STY  1   1 DAT
M  SAL   1  1  23
M  SDT   1 MRV_IMPLICIT_H                                        
M  SDD   1     0.5304   -0.4125    DR    ALL  0       0  
M  SED   1 IMPL_H1
M  END
> <IC50(uM)>
7.07

> <Outcome>
0.0

> <BindingDB ID>
297772

> <BindingDB MonomerID>
155428

> <BindingDB Ligand Name>
US9006454, I53

> <Curation/DataSource>
US Patent

> <Article DOI>
?

> <PMID>
?

> <Patent Number>
US9006454

> <Authors>
Thunuguntla, SS; Subramanya, H; Kunnam, SR; Sanivaru Vijay, SR; Bingi, C; Kusanur, R; Schwarz, M; Arlt, M

> <Link to Ligand in BindingDB>
http://www.bindingdb.org/bind/chemsearch/marvin/MolStructure.jsp?monomerid=155428

> <Link to Ligand-Target Pair in BindingDB>
http://www.bindingdb.org/jsp/dbsearch/PrimarySearch_ki.jsp?energyterm=kJ/mole&tag=r21&monomerid=155428&enzyme=Dihydroorotate+dehydrogenase&column=ki&startPg=0&Increment=50&submit=Search

> <PubChem CID>
46946784

> <PubChem SID>
253658365

$$$$

  Mrv2115 07222212352D          

 23 25  0  0  0  0            999 V2000
   -2.8579   -4.1250    0.0000 C   0  0  0  0  0  0  0  0  0  0  0  0
   -2.1434   -3.7125    0.0000 C   0  0  0  0  0  0  0  0  0  0  0  0
   -1.4289   -4.1250    0.0000 C   0  0  0  0  0  0  0  0  0  0  0  0
   -2.1434   -2.8875    0.0000 C   0  0  0  0  0  0  0  0  0  0  0  0
   -1.4289   -2.4750    0.0000 C   0  0  0  0  0  0  0  0  0  0  0  0
   -1.4289   -1.6500    0.0000 C   0  0  0  0  0  0  0  0  0  0  0  0
   -0.7145   -1.2375    0.0000 C   0  0  0  0  0  0  0  0  0  0  0  0
    0.0000   -1.6500    0.0000 C   0  0  0  0  0  0  0  0  0  0  0  0
    0.7145   -1.2375    0.0000 C   0  0  0  0  0  0  0  0  0  0  0  0
    0.7145   -0.4125    0.0000 C   0  0  0  0  0  0  0  0  0  0  0  0
    1.4289    0.0000    0.0000 C   0  0  0  0  0  0  0  0  0  0  0  0
    1.4289    0.8250    0.0000 C   0  0  0  0  0  0  0  0  0  0  0  0
    2.1434    1.2375    0.0000 O   0  0  0  0  0  0  0  0  0  0  0  0
    0.7145    1.2375    0.0000 O   0  0  0  0  0  0  0  0  0  0  0  0
    2.1434   -0.4125    0.0000 C   0  0  0  0  0  0  0  0  0  0  0  0
    2.8579    0.0000    0.0000 C   0  0  0  0  0  0  0  0  0  0  0  0
    3.5724   -0.4125    0.0000 C   0  0  0  0  0  0  0  0  0  0  0  0
    3.5724   -1.2375    0.0000 C   0  0  0  0  0  0  0  0  0  0  0  0
    2.8579   -1.6500    0.0000 C   0  0  0  0  0  0  0  0  0  0  0  0
    2.1434   -1.2375    0.0000 C   0  0  0  0  0  0  0  0  0  0  0  0
    1.4289   -1.6500    0.0000 N   0  0  0  0  0  0  0  0  0  0  0  0
    0.0000   -2.4750    0.0000 C   0  0  0  0  0  0  0  0  0  0  0  0
   -0.7145   -2.8875    0.0000 C   0  0  0  0  0  0  0  0  0  0  0  0
  1  2  1  0  0  0  0
  2  3  1  0  0  0  0
  2  4  1  0  0  0  0
  4  5  1  0  0  0  0
  5  6  4  0  0  0  0
  6  7  4  0  0  0  0
  7  8  4  0  0  0  0
  8  9  1  0  0  0  0
  9 10  4  0  0  0  0
 10 11  4  0  0  0  0
 11 12  1  0  0  0  0
 12 13  2  0  0  0  0
 12 14  1  0  0  0  0
 11 15  4  0  0  0  0
 15 16  4  0  0  0  0
 16 17  4  0  0  0  0
 17 18  4  0  0  0  0
 18 19  4  0  0  0  0
 19 20  4  0  0  0  0
 15 20  4  0  0  0  0
 20 21  4  0  0  0  0
  9 21  4  0  0  0  0
  8 22  4  0  0  0  0
 22 23  4  0  0  0  0
  5 23  4  0  0  0  0
M  END
> <IC50(uM)>
1.04

> <Outcome>
0.0

> <BindingDB ID>
51126169

> <BindingDB MonomerID>
50461856

> <BindingDB Ligand Name>
CHEMBL4224742

> <Curation/DataSource>
ChEMBL

> <Article DOI>
10.1021/acs.jmedchem.7b01862

> <PMID>
29727569

> <Patent Number>
?

> <Authors>
Madak, JT; Cuthbertson, CR; Miyata, Y; Tamura, S; Petrunak, EM; Stuckey, JA; Han, Y; He, M; Sun, D; Showalter, HD; Neamati, N

> <Link to Ligand in BindingDB>
http://www.bindingdb.org/bind/chemsearch/marvin/MolStructure.jsp?monomerid=50461856

> <Link to Ligand-Target Pair in BindingDB>
http://www.bindingdb.org/jsp/dbsearch/PrimarySearch_ki.jsp?energyterm=kJ/mole&tag=r21&monomerid=50461856&enzyme=Dihydroorotate+dehydrogenase&column=ki&startPg=0&Increment=50&submit=Search

> <PubChem CID>
2759386

> <PubChem SID>
433929121

$$$$

  Mrv2115 07222212352D          

 33 36  0  0  0  0            999 V2000
    0.6538    2.1599    0.0000 C   0  0  0  0  0  0  0  0  0  0  0  0
   -0.1712    2.1599    0.0000 C   0  0  0  0  0  0  0  0  0  0  0  0
   -0.5837    1.4455    0.0000 C   0  0  0  0  0  0  0  0  0  0  0  0
   -1.4087    1.4455    0.0000 C   0  0  0  0  0  0  0  0  0  0  0  0
   -1.8212    2.1599    0.0000 C   0  0  0  0  0  0  0  0  0  0  0  0
   -1.8212    0.7310    0.0000 O   0  0  0  0  0  0  0  0  0  0  0  0
   -1.4087    0.0165    0.0000 C   0  0  0  0  0  0  0  0  0  0  0  0
   -0.5837    0.0165    0.0000 C   0  0  0  0  0  0  0  0  0  0  0  0
   -0.1712   -0.6979    0.0000 C   0  0  0  0  0  0  0  0  0  0  0  0
    0.6538   -0.6979    0.0000 N   0  0  0  0  0  0  0  0  0  0  0  0
    1.1387   -0.0305    0.0000 N   0  0  0  0  0  0  0  0  0  0  0  0
    1.9233   -0.2854    0.0000 C   0  0  0  0  0  0  0  0  0  0  0  0
    2.6378    0.1271    0.0000 C   0  0  0  0  0  0  0  0  0  0  0  0
    3.3523   -0.2854    0.0000 C   0  0  0  0  0  0  0  0  0  0  0  0
    3.3523   -1.1104    0.0000 C   0  0  0  0  0  0  0  0  0  0  0  0
    2.6378   -1.5229    0.0000 C   0  0  0  0  0  0  0  0  0  0  0  0
    1.9233   -1.1104    0.0000 N   0  0  0  0  0  0  0  0  0  0  0  0
    1.1387   -1.3654    0.0000 C   0  0  0  0  0  0  0  0  0  0  0  0
    0.8838   -2.1500    0.0000 O   0  0  0  0  0  0  0  0  0  0  0  0
   -0.5837   -1.4124    0.0000 C   0  0  0  0  0  0  0  0  0  0  0  0
   -0.1712   -2.1269    0.0000 F   0  0  0  0  0  0  0  0  0  0  0  0
   -1.4087   -1.4124    0.0000 C   0  0  0  0  0  0  0  0  0  0  0  0
   -1.8212   -0.6979    0.0000 C   0  0  0  0  0  0  0  0  0  0  0  0
   -2.6462   -0.6979    0.0000 C   0  0  0  0  0  0  0  0  0  0  0  0
   -3.0587    0.0165    0.0000 O   0  0  0  0  0  0  0  0  0  0  0  0
   -3.0587   -1.4124    0.0000 N   0  0  0  0  0  0  0  0  0  0  0  0
   -2.6462   -2.1269    0.0000 C   0  0  0  0  0  0  0  0  0  0  0  0
   -1.8212   -2.1269    0.0000 C   0  0  0  0  0  0  0  0  0  0  0  0
   -1.4087   -2.8414    0.0000 C   0  0  0  0  0  0  0  0  0  0  0  0
   -1.8212   -3.5558    0.0000 C   0  0  0  0  0  0  0  0  0  0  0  0
   -2.6462   -3.5558    0.0000 C   0  0  0  0  0  0  0  0  0  0  0  0
   -3.0587   -2.8414    0.0000 C   0  0  0  0  0  0  0  0  0  0  0  0
   -3.8837   -2.8414    0.0000 C   0  0  0  0  0  0  0  0  0  0  0  0
  1  2  1  0  0  0  0
  2  3  1  0  0  0  0
  3  4  1  0  0  0  0
  4  5  1  0  0  0  0
  4  6  1  0  0  0  0
  6  7  1  0  0  0  0
  7  8  4  0  0  0  0
  8  9  4  0  0  0  0
  9 10  1  0  0  0  0
 10 11  4  0  0  0  0
 11 12  4  0  0  0  0
 12 13  4  0  0  0  0
 13 14  4  0  0  0  0
 14 15  4  0  0  0  0
 15 16  4  0  0  0  0
 16 17  4  0  0  0  0
 12 17  4  0  0  0  0
 17 18  4  0  0  0  0
 10 18  4  0  0  0  0
 18 19  2  0  0  0  0
  9 20  4  0  0  0  0
 20 21  1  0  0  0  0
 20 22  4  0  0  0  0
 22 23  4  0  0  0  0
  7 23  4  0  0  0  0
 23 24  1  0  0  0  0
 24 25  2  0  0  0  0
 24 26  1  0  0  0  0
 26 27  1  0  0  0  0
 27 28  4  0  0  0  0
 28 29  4  0  0  0  0
 29 30  4  0  0  0  0
 30 31  4  0  0  0  0
 31 32  4  0  0  0  0
 27 32  4  0  0  0  0
 32 33  1  0  0  0  0
M  END
> <IC50(uM)>
0.0735

> <Outcome>
1.0

> <BindingDB ID>
1020615; 1020616

> <BindingDB MonomerID>
490551

> <BindingDB Ligand Name>
5-fluoro-N-(2-methylphenyl)-4-(3-oxo[1,2,4]triazolo[4,3-a]pyridin-2(3H)-yl)-2-[(2S)-pentan-2-yloxy]benzamide::US10968216, Example 219

> <Curation/DataSource>
US Patent

> <Article DOI>
?

> <PMID>
?

> <Patent Number>
US10968216

> <Authors>
Gradl, SN; Nguyen, D; Eis, K; Gunther, J; Stellfeld, T; Janzer, A; Christian, S; Mueller, T; Sheikh, SE; Zhou, HJ; Zhao, C; Sykes, DB; Ferrara, SJ; Liu, K; Herbert, SA; Merz, C; Niehues, M; Nising, CF; Schafer, M; Zimmermann, K; Knablein, J; Thede, K; Faupel, T

> <Link to Ligand in BindingDB>
http://www.bindingdb.org/bind/chemsearch/marvin/MolStructure.jsp?monomerid=490551

> <Link to Ligand-Target Pair in BindingDB>
http://www.bindingdb.org/jsp/dbsearch/PrimarySearch_ki.jsp?energyterm=kJ/mole&tag=r21&monomerid=490551&enzyme=Dihydroorotate+dehydrogenase&column=ki&startPg=0&Increment=50&submit=Search

> <PubChem CID>
134474534

> <PubChem SID>
447117277

$$$$

  Mrv2115 07222212352D          

 27 30  0  0  0  0            999 V2000
    3.9934    2.4750    0.0000 O   0  0  0  0  0  0  0  0  0  0  0  0
    3.2789    2.0625    0.0000 C   0  0  0  0  0  0  0  0  0  0  0  0
    2.5645    2.4750    0.0000 O   0  0  0  0  0  0  0  0  0  0  0  0
    3.2789    1.2375    0.0000 C   0  0  0  0  0  0  0  0  0  0  0  0
    3.9934    0.8250    0.0000 C   0  0  0  0  0  0  0  0  0  0  0  0
    3.9934    0.0000    0.0000 C   0  0  0  0  0  0  0  0  0  0  0  0
    3.2789   -0.4125    0.0000 C   0  0  0  0  0  0  0  0  0  0  0  0
    2.5645    0.0000    0.0000 C   0  0  0  0  0  0  0  0  0  0  0  0
    1.7798   -0.2549    0.0000 N   0  0  0  0  0  0  0  0  0  0  0  0
    1.2949    0.4125    0.0000 C   0  0  0  0  0  0  0  0  0  0  0  0
    0.4699    0.4125    0.0000 C   0  0  0  0  0  0  0  0  0  0  0  0
    0.0574   -0.3020    0.0000 C   0  0  0  0  0  0  0  0  0  0  0  0
   -0.7676   -0.3020    0.0000 C   0  0  0  0  0  0  0  0  0  0  0  0
   -1.1801    0.4125    0.0000 C   0  0  0  0  0  0  0  0  0  0  0  0
   -2.0051    0.4125    0.0000 O   0  0  0  0  0  0  0  0  0  0  0  0
   -2.4176    1.1270    0.0000 C   0  0  0  0  0  0  0  0  0  0  0  0
   -3.2426    1.1270    0.0000 C   0  0  0  0  0  0  0  0  0  0  0  0
   -3.6551    0.4125    0.0000 F   0  0  0  0  0  0  0  0  0  0  0  0
   -3.6551    1.8414    0.0000 C   0  0  0  0  0  0  0  0  0  0  0  0
   -3.2426    2.5559    0.0000 C   0  0  0  0  0  0  0  0  0  0  0  0
   -2.4176    2.5559    0.0000 C   0  0  0  0  0  0  0  0  0  0  0  0
   -2.0051    1.8414    0.0000 C   0  0  0  0  0  0  0  0  0  0  0  0
   -1.1801    1.8414    0.0000 F   0  0  0  0  0  0  0  0  0  0  0  0
   -0.7676    1.1270    0.0000 C   0  0  0  0  0  0  0  0  0  0  0  0
    0.0574    1.1270    0.0000 C   0  0  0  0  0  0  0  0  0  0  0  0
    1.7798    1.0799    0.0000 N   0  0  0  0  0  0  0  0  0  0  0  0
    2.5645    0.8250    0.0000 C   0  0  0  0  0  0  0  0  0  0  0  0
  1  2  2  0  0  0  0
  2  3  1  0  0  0  0
  2  4  1  0  0  0  0
  4  5  4  0  0  0  0
  5  6  4  0  0  0  0
  6  7  4  0  0  0  0
  7  8  4  0  0  0  0
  8  9  4  0  0  0  0
  9 10  4  0  0  0  0
 10 11  1  0  0  0  0
 11 12  4  0  0  0  0
 12 13  4  0  0  0  0
 13 14  4  0  0  0  0
 14 15  1  0  0  0  0
 15 16  1  0  0  0  0
 16 17  4  0  0  0  0
 17 18  1  0  0  0  0
 17 19  4  0  0  0  0
 19 20  4  0  0  0  0
 20 21  4  0  0  0  0
 21 22  4  0  0  0  0
 16 22  4  0  0  0  0
 22 23  1  0  0  0  0
 14 24  4  0  0  0  0
 24 25  4  0  0  0  0
 11 25  4  0  0  0  0
 10 26  4  0  0  0  0
 26 27  4  0  0  0  0
  4 27  4  0  0  0  0
  8 27  4  0  0  0  0
M  STY  1   1 DAT
M  SAL   1  1   9
M  SDT   1 MRV_IMPLICIT_H                                        
M  SDD   1     0.5304   -0.4125    DR    ALL  0       0  
M  SED   1 IMPL_H1
M  END
> <IC50(uM)>
1.57

> <Outcome>
0.0

> <BindingDB ID>
297774

> <BindingDB MonomerID>
155430

> <BindingDB Ligand Name>
US9006454, I56

> <Curation/DataSource>
US Patent

> <Article DOI>
?

> <PMID>
?

> <Patent Number>
US9006454

> <Authors>
Thunuguntla, SS; Subramanya, H; Kunnam, SR; Sanivaru Vijay, SR; Bingi, C; Kusanur, R; Schwarz, M; Arlt, M

> <Link to Ligand in BindingDB>
http://www.bindingdb.org/bind/chemsearch/marvin/MolStructure.jsp?monomerid=155430

> <Link to Ligand-Target Pair in BindingDB>
http://www.bindingdb.org/jsp/dbsearch/PrimarySearch_ki.jsp?energyterm=kJ/mole&tag=r21&monomerid=155430&enzyme=Dihydroorotate+dehydrogenase&column=ki&startPg=0&Increment=50&submit=Search

> <PubChem CID>
46946787

> <PubChem SID>
253658367

$$$$

  Mrv2115 07222212352D          

 35 37  0  0  0  0            999 V2000
    2.1434   -2.8875    0.0000 C   0  0  0  0  0  0  0  0  0  0  0  0
    2.1434   -3.7125    0.0000 C   0  0  0  0  0  0  0  0  0  0  0  0
    1.4289   -4.1250    0.0000 C   0  0  0  0  0  0  0  0  0  0  0  0
    1.4289   -4.9500    0.0000 N   0  0  0  0  0  0  0  0  0  0  0  0
    0.7615   -5.4349    0.0000 C   0  0  0  0  0  0  0  0  0  0  0  0
   -0.0231   -5.1800    0.0000 C   0  0  0  0  0  0  0  0  0  0  0  0
    1.0164   -6.2195    0.0000 N   0  0  0  0  0  0  0  0  0  0  0  0
    1.8414   -6.2195    0.0000 N   0  0  0  0  0  0  0  0  0  0  0  0
    2.3264   -6.8870    0.0000 C   0  0  0  0  0  0  0  0  0  0  0  0
    3.1468   -6.8007    0.0000 C   0  0  0  0  0  0  0  0  0  0  0  0
    3.6318   -7.4682    0.0000 C   0  0  0  0  0  0  0  0  0  0  0  0
    4.4522   -7.3820    0.0000 O   0  0  0  0  0  0  0  0  0  0  0  0
    4.7878   -6.6283    0.0000 C   0  0  0  0  0  0  0  0  0  0  0  0
    4.3029   -5.9608    0.0000 C   0  0  0  0  0  0  0  0  0  0  0  0
    5.6083   -6.5420    0.0000 C   0  0  0  0  0  0  0  0  0  0  0  0
    5.6945   -7.3625    0.0000 F   0  0  0  0  0  0  0  0  0  0  0  0
    5.5221   -5.7216    0.0000 F   0  0  0  0  0  0  0  0  0  0  0  0
    6.4288   -6.4558    0.0000 F   0  0  0  0  0  0  0  0  0  0  0  0
    3.2962   -8.2219    0.0000 C   0  0  0  0  0  0  0  0  0  0  0  0
    3.7811   -8.8893    0.0000 C   0  0  0  0  0  0  0  0  0  0  0  0
    3.4456   -9.6430    0.0000 O   0  0  0  0  0  0  0  0  0  0  0  0
    4.6016   -8.8031    0.0000 N   0  0  0  0  0  0  0  0  0  0  0  0
    5.0865   -9.4705    0.0000 C   0  0  0  0  0  0  0  0  0  0  0  0
    5.9070   -9.3843    0.0000 C   0  0  0  0  0  0  0  0  0  0  0  0
    6.2426   -8.6306    0.0000 F   0  0  0  0  0  0  0  0  0  0  0  0
    6.3919  -10.0517    0.0000 C   0  0  0  0  0  0  0  0  0  0  0  0
    6.0564  -10.8054    0.0000 C   0  0  0  0  0  0  0  0  0  0  0  0
    5.2359  -10.8916    0.0000 C   0  0  0  0  0  0  0  0  0  0  0  0
    4.7510  -10.2242    0.0000 C   0  0  0  0  0  0  0  0  0  0  0  0
    3.9305  -10.3104    0.0000 F   0  0  0  0  0  0  0  0  0  0  0  0
    2.4757   -8.3081    0.0000 C   0  0  0  0  0  0  0  0  0  0  0  0
    1.9908   -7.6407    0.0000 C   0  0  0  0  0  0  0  0  0  0  0  0
    1.1703   -7.7269    0.0000 F   0  0  0  0  0  0  0  0  0  0  0  0
    2.0964   -5.4349    0.0000 C   0  0  0  0  0  0  0  0  0  0  0  0
    2.8810   -5.1800    0.0000 O   0  0  0  0  0  0  0  0  0  0  0  0
  1  2  1  0  0  0  0
  2  3  1  0  0  0  0
  3  4  1  0  0  0  0
  4  5  4  0  0  0  0
  5  6  1  0  0  0  0
  5  7  4  0  0  0  0
  7  8  4  0  0  0  0
  8  9  1  0  0  0  0
  9 10  4  0  0  0  0
 10 11  4  0  0  0  0
 11 12  1  0  0  0  0
 12 13  1  0  0  0  0
 13 14  1  0  0  0  0
 13 15  1  0  0  0  0
 15 16  1  0  0  0  0
 15 17  1  0  0  0  0
 15 18  1  0  0  0  0
 11 19  4  0  0  0  0
 19 20  1  0  0  0  0
 20 21  2  0  0  0  0
 20 22  1  0  0  0  0
 22 23  1  0  0  0  0
 23 24  4  0  0  0  0
 24 25  1  0  0  0  0
 24 26  4  0  0  0  0
 26 27  4  0  0  0  0
 27 28  4  0  0  0  0
 28 29  4  0  0  0  0
 23 29  4  0  0  0  0
 29 30  1  0  0  0  0
 19 31  4  0  0  0  0
 31 32  4  0  0  0  0
  9 32  4  0  0  0  0
 32 33  1  0  0  0  0
  8 34  4  0  0  0  0
  4 34  4  0  0  0  0
 34 35  2  0  0  0  0
M  END
> <IC50(uM)>
0.015

> <Outcome>
1.0

> <BindingDB ID>
972563; 1098717

> <BindingDB MonomerID>
470437

> <BindingDB Ligand Name>
N-(2,6-difluorophenyl)-5-fluoro-4-(3-methyl-5-oxo-4-propyl-4,5-dihydro-1H-1,2,4-triazol-1-yl)-2-{[(2S)-1,1,1-trifluoropropan-2-yl]oxy}benzamide::US10815215, Example 105; N-(2,6-difluorophenyl)-5-fluoro-4-(3-methyl-5-oxo-4-propyl-4,5-dihydro-1H-1,2,4-triazol-1-yl)-2-{[(2S)-1,1,1-trifluoropropan-2-yl]oxy}benzamide::US10815215, Example 105::US11130745, Example 105

> <Curation/DataSource>
US Patent

> <Article DOI>
?

> <PMID>
?

> <Patent Number>
US10815215; US11130745

> <Authors>
Gradl, SN; Nguyen, D; Eis, K; Gunther, J; Stellfeld, T; Janzer, A; Christian, S; Muller, T; Sheikh, SE; Zhou, HJ; Zhao, C; Sykes, DB; Ferrara, SJ; Liu, K; Krober, M; Merz, C; Niehues, M; Schafer, M; Zimmermann, K; Nising, CF; Gradl, SN; Nguyen, D; Eis, K; Gunther, J; Stellfeld, T; Janzer, A; Christian, S; Muller, T; Sheikh, SE; Sykes, DB; Ferrara, SJ; Krober, M; Merz, C; Niehues, M; Schafer, M; Zimmermann, K; Nising, CF

> <Link to Ligand in BindingDB>
http://www.bindingdb.org/bind/chemsearch/marvin/MolStructure.jsp?monomerid=470437

> <Link to Ligand-Target Pair in BindingDB>
http://www.bindingdb.org/jsp/dbsearch/PrimarySearch_ki.jsp?energyterm=kJ/mole&tag=r21&monomerid=470437&enzyme=Dihydroorotate+dehydrogenase&column=ki&startPg=0&Increment=50&submit=Search

> <PubChem CID>
134470333

> <PubChem SID>
441609614

$$$$

  Mrv2115 07222212352D          

 38 42  0  0  0  0            999 V2000
   -0.1712   -0.6979    0.0000 C   0  0  0  0  0  0  0  0  0  0  0  0
    0.6538   -0.6979    0.0000 C   0  0  0  0  0  0  0  0  0  0  0  0
    1.1387   -0.0305    0.0000 N   0  0  0  0  0  0  0  0  0  0  0  0
    1.9233   -0.2854    0.0000 C   0  0  0  0  0  0  0  0  0  0  0  0
    2.6378    0.1271    0.0000 C   0  0  0  0  0  0  0  0  0  0  0  0
    2.6378    0.9521    0.0000 C   0  0  0  0  0  0  0  0  0  0  0  0
    3.3523    1.3646    0.0000 O   0  0  0  0  0  0  0  0  0  0  0  0
    1.9233    1.3646    0.0000 O   0  0  0  0  0  0  0  0  0  0  0  0
    3.3523   -0.2854    0.0000 C   0  0  0  0  0  0  0  0  0  0  0  0
    3.3523   -1.1104    0.0000 C   0  0  0  0  0  0  0  0  0  0  0  0
    4.0668   -1.5229    0.0000 C   0  0  0  0  0  0  0  0  0  0  0  0
    4.7812   -1.1104    0.0000 C   0  0  0  0  0  0  0  0  0  0  0  0
    4.7812   -0.2854    0.0000 F   0  0  0  0  0  0  0  0  0  0  0  0
    5.4957   -1.5229    0.0000 C   0  0  0  0  0  0  0  0  0  0  0  0
    6.2102   -1.1104    0.0000 F   0  0  0  0  0  0  0  0  0  0  0  0
    5.4957   -2.3479    0.0000 C   0  0  0  0  0  0  0  0  0  0  0  0
    6.2102   -2.7604    0.0000 C   0  0  0  0  0  0  0  0  0  0  0  0
    6.9246   -2.3479    0.0000 C   0  0  0  0  0  0  0  0  0  0  0  0
    7.6391   -2.7604    0.0000 C   0  0  0  0  0  0  0  0  0  0  0  0
    7.6391   -3.5854    0.0000 C   0  0  0  0  0  0  0  0  0  0  0  0
    8.3536   -3.9979    0.0000 C   0  0  0  0  0  0  0  0  0  0  0  0
    8.3536   -4.8229    0.0000 N   0  0  0  0  0  0  0  0  0  0  0  0
    9.0681   -5.2354    0.0000 C   0  0  0  0  0  0  0  0  0  0  0  0
    9.0681   -6.0604    0.0000 C   0  0  0  0  0  0  0  0  0  0  0  0
    8.3536   -6.4729    0.0000 C   0  0  0  0  0  0  0  0  0  0  0  0
    7.6391   -6.0604    0.0000 C   0  0  0  0  0  0  0  0  0  0  0  0
    7.3569   -6.8357    0.0000 F   0  0  0  0  0  0  0  0  0  0  0  0
    6.8266   -5.9172    0.0000 F   0  0  0  0  0  0  0  0  0  0  0  0
    7.6391   -5.2354    0.0000 C   0  0  0  0  0  0  0  0  0  0  0  0
    6.9246   -3.9979    0.0000 C   0  0  0  0  0  0  0  0  0  0  0  0
    6.2102   -3.5854    0.0000 C   0  0  0  0  0  0  0  0  0  0  0  0
    4.7812   -2.7604    0.0000 C   0  0  0  0  0  0  0  0  0  0  0  0
    4.7812   -3.5854    0.0000 F   0  0  0  0  0  0  0  0  0  0  0  0
    4.0668   -2.3479    0.0000 C   0  0  0  0  0  0  0  0  0  0  0  0
    3.3523   -2.7604    0.0000 F   0  0  0  0  0  0  0  0  0  0  0  0
    2.6378   -1.5229    0.0000 C   0  0  0  0  0  0  0  0  0  0  0  0
    1.9233   -1.1104    0.0000 C   0  0  0  0  0  0  0  0  0  0  0  0
    1.1387   -1.3654    0.0000 N   0  0  0  0  0  0  0  0  0  0  0  0
  1  2  1  0  0  0  0
  2  3  4  0  0  0  0
  3  4  4  0  0  0  0
  4  5  4  0  0  0  0
  5  6  1  0  0  0  0
  6  7  2  0  0  0  0
  6  8  1  0  0  0  0
  5  9  4  0  0  0  0
  9 10  4  0  0  0  0
 10 11  1  0  0  0  0
 11 12  4  0  0  0  0
 12 13  1  0  0  0  0
 12 14  4  0  0  0  0
 14 15  1  0  0  0  0
 14 16  4  0  0  0  0
 16 17  1  0  0  0  0
 17 18  4  0  0  0  0
 18 19  4  0  0  0  0
 19 20  4  0  0  0  0
 20 21  1  0  0  0  0
 21 22  1  0  0  0  0
 22 23  1  0  0  0  0
 23 24  1  0  0  0  0
 24 25  1  0  0  0  0
 25 26  1  0  0  0  0
 26 27  1  0  0  0  0
 26 28  1  0  0  0  0
 26 29  1  0  0  0  0
 22 29  1  0  0  0  0
 20 30  4  0  0  0  0
 30 31  4  0  0  0  0
 17 31  4  0  0  0  0
 16 32  4  0  0  0  0
 32 33  1  0  0  0  0
 32 34  4  0  0  0  0
 11 34  4  0  0  0  0
 34 35  1  0  0  0  0
 10 36  4  0  0  0  0
 36 37  4  0  0  0  0
  4 37  4  0  0  0  0
 37 38  4  0  0  0  0
  2 38  4  0  0  0  0
M  STY  1   1 DAT
M  SAL   1  1  38
M  SDT   1 MRV_IMPLICIT_H                                        
M  SDD   1     0.5304   -0.4125    DR    ALL  0       0  
M  SED   1 IMPL_H1
M  END
> <IC50(uM)>
0.0028000000000000004

> <Outcome>
1.0

> <BindingDB ID>
51390144; 1045607

> <BindingDB MonomerID>
501665

> <BindingDB Ligand Name>
US11028054, Example 64

> <Curation/DataSource>
ChEMBL; US Patent

> <Article DOI>
?

> <PMID>
33214811; ?

> <Patent Number>
?; US11028054

> <Authors>
Abdel-Magid, AF; Thunuguntla, SS; Hosahalli, S; Panigrahi, SK; Schwarz, M; Arit, M

> <Link to Ligand in BindingDB>
http://www.bindingdb.org/bind/chemsearch/marvin/MolStructure.jsp?monomerid=501665

> <Link to Ligand-Target Pair in BindingDB>
http://www.bindingdb.org/jsp/dbsearch/PrimarySearch_ki.jsp?energyterm=kJ/mole&tag=r21&monomerid=501665&enzyme=Dihydroorotate+dehydrogenase&column=ki&startPg=0&Increment=50&submit=Search

> <PubChem CID>
146525450; ?

> <PubChem SID>
459086997; ?

$$$$

  Mrv2115 07222212352D          

 27 29  0  0  0  0            999 V2000
    1.4289   -0.0000    0.0000 C   0  0  0  0  0  0  0  0  0  0  0  0
    0.7145   -0.4125    0.0000 N   0  0  0  0  0  0  0  0  0  0  0  0
    0.0000    0.0000    0.0000 N   0  0  0  0  0  0  0  0  0  0  0  0
   -0.7145   -0.4125    0.0000 C   0  0  0  0  0  0  0  0  0  0  0  0
   -1.4289    0.0000    0.0000 C   0  0  0  0  0  0  0  0  0  0  0  0
   -2.1434   -0.4125    0.0000 C   0  0  0  0  0  0  0  0  0  0  0  0
   -2.8579    0.0000    0.0000 C   0  0  0  0  0  0  0  0  0  0  0  0
   -3.5724   -0.4125    0.0000 F   0  0  0  0  0  0  0  0  0  0  0  0
   -2.8579    0.8250    0.0000 C   0  0  0  0  0  0  0  0  0  0  0  0
   -3.5724    1.2375    0.0000 F   0  0  0  0  0  0  0  0  0  0  0  0
   -2.1434    1.2375    0.0000 C   0  0  0  0  0  0  0  0  0  0  0  0
   -1.4289    0.8250    0.0000 C   0  0  0  0  0  0  0  0  0  0  0  0
   -0.7145    1.2375    0.0000 C   0  0  0  0  0  0  0  0  0  0  0  0
    0.0000    0.8250    0.0000 O   0  0  0  0  0  0  0  0  0  0  0  0
   -0.7145    2.0625    0.0000 O   0  0  0  0  0  0  0  0  0  0  0  0
    0.7145   -1.2375    0.0000 C   0  0  0  0  0  0  0  0  0  0  0  0
    1.3819   -1.7224    0.0000 N   0  0  0  0  0  0  0  0  0  0  0  0
    1.1270   -2.5070    0.0000 C   0  0  0  0  0  0  0  0  0  0  0  0
    1.6119   -3.1745    0.0000 C   0  0  0  0  0  0  0  0  0  0  0  0
    2.4324   -3.0882    0.0000 C   0  0  0  0  0  0  0  0  0  0  0  0
    2.9173   -3.7557    0.0000 C   0  0  0  0  0  0  0  0  0  0  0  0
    2.5817   -4.5094    0.0000 C   0  0  0  0  0  0  0  0  0  0  0  0
    1.7613   -4.5956    0.0000 C   0  0  0  0  0  0  0  0  0  0  0  0
    1.2763   -3.9282    0.0000 C   0  0  0  0  0  0  0  0  0  0  0  0
    0.4559   -4.0144    0.0000 Cl  0  0  0  0  0  0  0  0  0  0  0  0
    0.3020   -2.5070    0.0000 C   0  0  0  0  0  0  0  0  0  0  0  0
    0.0470   -1.7224    0.0000 S   0  0  0  0  0  0  0  0  0  0  0  0
  1  2  1  0  0  0  0
  2  3  1  0  0  0  0
  3  4  2  0  0  0  0
  4  5  1  0  0  0  0
  5  6  4  0  0  0  0
  6  7  4  0  0  0  0
  7  8  1  0  0  0  0
  7  9  4  0  0  0  0
  9 10  1  0  0  0  0
  9 11  4  0  0  0  0
 11 12  4  0  0  0  0
  5 12  4  0  0  0  0
 12 13  1  0  0  0  0
 13 14  2  0  0  0  0
 13 15  1  0  0  0  0
  2 16  1  0  0  0  0
 16 17  4  0  0  0  0
 17 18  4  0  0  0  0
 18 19  1  0  0  0  0
 19 20  4  0  0  0  0
 20 21  4  0  0  0  0
 21 22  4  0  0  0  0
 22 23  4  0  0  0  0
 23 24  4  0  0  0  0
 19 24  4  0  0  0  0
 24 25  1  0  0  0  0
 18 26  4  0  0  0  0
 26 27  4  0  0  0  0
 16 27  4  0  0  0  0
M  END
> <IC50(uM)>
0.0044

> <Outcome>
1.0

> <BindingDB ID>
1001130

> <BindingDB MonomerID>
482816

> <BindingDB Ligand Name>
US10919869, No.  23

> <Curation/DataSource>
US Patent

> <Article DOI>
?

> <PMID>
?

> <Patent Number>
US10919869

> <Authors>
Li, H; Xu, Y; Wang, R; Zhao, Z; Song, W; Xu, L

> <Link to Ligand in BindingDB>
http://www.bindingdb.org/bind/chemsearch/marvin/MolStructure.jsp?monomerid=482816

> <Link to Ligand-Target Pair in BindingDB>
http://www.bindingdb.org/jsp/dbsearch/PrimarySearch_ki.jsp?energyterm=kJ/mole&tag=r21&monomerid=482816&enzyme=Dihydroorotate+dehydrogenase&column=ki&startPg=0&Increment=50&submit=Search

> <PubChem CID>
132157900

> <PubChem SID>
443551957

$$$$

  Mrv2115 07222212352D          

 25 27  0  0  0  0            999 V2000
   -2.1434   -0.4125    0.0000 O   0  0  0  0  0  0  0  0  0  0  0  0
   -1.4289    0.0000    0.0000 C   0  0  0  0  0  0  0  0  0  0  0  0
   -0.7145   -0.4125    0.0000 O   0  0  0  0  0  0  0  0  0  0  0  0
   -1.4289    0.8250    0.0000 C   0  0  0  0  0  0  0  0  0  0  0  0
   -2.1434    1.2375    0.0000 C   0  0  0  0  0  0  0  0  0  0  0  0
   -2.8579    0.8250    0.0000 F   0  0  0  0  0  0  0  0  0  0  0  0
   -2.1434    2.0625    0.0000 C   0  0  0  0  0  0  0  0  0  0  0  0
   -1.4289    2.4750    0.0000 C   0  0  0  0  0  0  0  0  0  0  0  0
   -0.7145    2.0625    0.0000 C   0  0  0  0  0  0  0  0  0  0  0  0
   -0.7145    1.2375    0.0000 C   0  0  0  0  0  0  0  0  0  0  0  0
    0.0000    0.8250    0.0000 C   0  0  0  0  0  0  0  0  0  0  0  0
    0.0000    0.0000    0.0000 N   0  0  0  0  0  0  0  0  0  0  0  0
    0.7145   -0.4125    0.0000 N   0  0  0  0  0  0  0  0  0  0  0  0
    0.7145   -1.2375    0.0000 C   0  0  0  0  0  0  0  0  0  0  0  0
    1.3819   -1.7224    0.0000 N   0  0  0  0  0  0  0  0  0  0  0  0
    1.1270   -2.5070    0.0000 C   0  0  0  0  0  0  0  0  0  0  0  0
    1.6119   -3.1745    0.0000 C   0  0  0  0  0  0  0  0  0  0  0  0
    2.4324   -3.0882    0.0000 C   0  0  0  0  0  0  0  0  0  0  0  0
    2.9173   -3.7557    0.0000 C   0  0  0  0  0  0  0  0  0  0  0  0
    2.5817   -4.5094    0.0000 C   0  0  0  0  0  0  0  0  0  0  0  0
    1.7613   -4.5956    0.0000 C   0  0  0  0  0  0  0  0  0  0  0  0
    1.2763   -3.9282    0.0000 C   0  0  0  0  0  0  0  0  0  0  0  0
    0.4559   -4.0144    0.0000 Cl  0  0  0  0  0  0  0  0  0  0  0  0
    0.3020   -2.5070    0.0000 C   0  0  0  0  0  0  0  0  0  0  0  0
    0.0470   -1.7224    0.0000 S   0  0  0  0  0  0  0  0  0  0  0  0
  1  2  2  0  0  0  0
  2  3  1  0  0  0  0
  2  4  1  0  0  0  0
  4  5  4  0  0  0  0
  5  6  1  0  0  0  0
  5  7  4  0  0  0  0
  7  8  4  0  0  0  0
  8  9  4  0  0  0  0
  9 10  4  0  0  0  0
  4 10  4  0  0  0  0
 10 11  1  0  0  0  0
 11 12  2  0  0  0  0
 12 13  1  0  0  0  0
 13 14  1  0  0  0  0
 14 15  4  0  0  0  0
 15 16  4  0  0  0  0
 16 17  1  0  0  0  0
 17 18  4  0  0  0  0
 18 19  4  0  0  0  0
 19 20  4  0  0  0  0
 20 21  4  0  0  0  0
 21 22  4  0  0  0  0
 17 22  4  0  0  0  0
 22 23  1  0  0  0  0
 16 24  4  0  0  0  0
 24 25  4  0  0  0  0
 14 25  4  0  0  0  0
M  END
> <IC50(uM)>
0.234

> <Outcome>
1.0

> <BindingDB ID>
1001133

> <BindingDB MonomerID>
482819

> <BindingDB Ligand Name>
US10919869, No.  58

> <Curation/DataSource>
US Patent

> <Article DOI>
?

> <PMID>
?

> <Patent Number>
US10919869

> <Authors>
Li, H; Xu, Y; Wang, R; Zhao, Z; Song, W; Xu, L

> <Link to Ligand in BindingDB>
http://www.bindingdb.org/bind/chemsearch/marvin/MolStructure.jsp?monomerid=482819

> <Link to Ligand-Target Pair in BindingDB>
http://www.bindingdb.org/jsp/dbsearch/PrimarySearch_ki.jsp?energyterm=kJ/mole&tag=r21&monomerid=482819&enzyme=Dihydroorotate+dehydrogenase&column=ki&startPg=0&Increment=50&submit=Search

> <PubChem CID>
129892294

> <PubChem SID>
443551960

$$$$

  Mrv2115 07222212352D          

 32 36  0  0  0  0            999 V2000
    5.4223    3.3000    0.0000 C   0  0  0  0  0  0  0  0  0  0  0  0
    5.4223    2.4750    0.0000 C   0  0  0  0  0  0  0  0  0  0  0  0
    6.1368    2.0625    0.0000 C   0  0  0  0  0  0  0  0  0  0  0  0
    6.1368    1.2375    0.0000 C   0  0  0  0  0  0  0  0  0  0  0  0
    5.4223    0.8250    0.0000 C   0  0  0  0  0  0  0  0  0  0  0  0
    4.7079    1.2375    0.0000 C   0  0  0  0  0  0  0  0  0  0  0  0
    4.7079    2.0625    0.0000 C   0  0  0  0  0  0  0  0  0  0  0  0
    3.9934    2.4750    0.0000 N   0  0  0  0  0  0  0  0  0  0  0  0
    3.2789    2.0625    0.0000 C   0  0  0  0  0  0  0  0  0  0  0  0
    2.5645    2.4750    0.0000 O   0  0  0  0  0  0  0  0  0  0  0  0
    3.2789    1.2375    0.0000 C   0  0  0  0  0  0  0  0  0  0  0  0
    3.9934    0.8250    0.0000 C   0  0  0  0  0  0  0  0  0  0  0  0
    3.9934    0.0000    0.0000 C   0  0  0  0  0  0  0  0  0  0  0  0
    3.2789   -0.4125    0.0000 C   0  0  0  0  0  0  0  0  0  0  0  0
    2.5645    0.0000    0.0000 C   0  0  0  0  0  0  0  0  0  0  0  0
    1.7798   -0.2549    0.0000 N   0  0  0  0  0  0  0  0  0  0  0  0
    1.2949    0.4125    0.0000 C   0  0  0  0  0  0  0  0  0  0  0  0
    0.4699    0.4125    0.0000 C   0  0  0  0  0  0  0  0  0  0  0  0
   -0.0150   -0.2549    0.0000 C   0  0  0  0  0  0  0  0  0  0  0  0
   -0.7996   -0.0000    0.0000 C   0  0  0  0  0  0  0  0  0  0  0  0
   -1.4671   -0.4849    0.0000 Br  0  0  0  0  0  0  0  0  0  0  0  0
   -0.7996    0.8250    0.0000 N   0  0  0  0  0  0  0  0  0  0  0  0
   -0.0150    1.0799    0.0000 N   0  0  0  0  0  0  0  0  0  0  0  0
    0.2399    1.8646    0.0000 C   0  0  0  0  0  0  0  0  0  0  0  0
    1.0469    2.0361    0.0000 N   0  0  0  0  0  0  0  0  0  0  0  0
    1.3018    2.8207    0.0000 C   0  0  0  0  0  0  0  0  0  0  0  0
    0.7498    3.4338    0.0000 C   0  0  0  0  0  0  0  0  0  0  0  0
   -0.0572    3.2623    0.0000 C   0  0  0  0  0  0  0  0  0  0  0  0
   -0.3121    2.4777    0.0000 C   0  0  0  0  0  0  0  0  0  0  0  0
   -1.1191    2.3061    0.0000 Cl  0  0  0  0  0  0  0  0  0  0  0  0
    1.7798    1.0799    0.0000 N   0  0  0  0  0  0  0  0  0  0  0  0
    2.5645    0.8250    0.0000 C   0  0  0  0  0  0  0  0  0  0  0  0
  1  2  1  0  0  0  0
  2  3  4  0  0  0  0
  3  4  4  0  0  0  0
  4  5  4  0  0  0  0
  5  6  4  0  0  0  0
  6  7  4  0  0  0  0
  2  7  4  0  0  0  0
  7  8  1  0  0  0  0
  8  9  1  0  0  0  0
  9 10  2  0  0  0  0
  9 11  1  0  0  0  0
 11 12  4  0  0  0  0
 12 13  4  0  0  0  0
 13 14  4  0  0  0  0
 14 15  4  0  0  0  0
 15 16  4  0  0  0  0
 16 17  4  0  0  0  0
 17 18  1  0  0  0  0
 18 19  4  0  0  0  0
 19 20  4  0  0  0  0
 20 21  1  0  0  0  0
 20 22  4  0  0  0  0
 22 23  4  0  0  0  0
 18 23  4  0  0  0  0
 23 24  1  0  0  0  0
 24 25  4  0  0  0  0
 25 26  4  0  0  0  0
 26 27  4  0  0  0  0
 27 28  4  0  0  0  0
 28 29  4  0  0  0  0
 24 29  4  0  0  0  0
 29 30  1  0  0  0  0
 17 31  4  0  0  0  0
 31 32  4  0  0  0  0
 11 32  4  0  0  0  0
 15 32  4  0  0  0  0
M  STY  1   1 DAT
M  SAL   1  1  31
M  SDT   1 MRV_IMPLICIT_H                                        
M  SDD   1     0.5304   -0.4125    DR    ALL  0       0  
M  SED   1 IMPL_H1
M  END
> <IC50(uM)>
0.676

> <Outcome>
1.0

> <BindingDB ID>
50499496

> <BindingDB MonomerID>
50176138

> <BindingDB Ligand Name>
CHEMBL3809369

> <Curation/DataSource>
ChEMBL

> <Article DOI>
10.1016/j.bmcl.2016.05.016

> <PMID>
27220723

> <Patent Number>
?

> <Authors>
Li, J; Wu, D; Xu, X; Huang, J; Shao, X; Li, Z

> <Link to Ligand in BindingDB>
http://www.bindingdb.org/bind/chemsearch/marvin/MolStructure.jsp?monomerid=50176138

> <Link to Ligand-Target Pair in BindingDB>
http://www.bindingdb.org/jsp/dbsearch/PrimarySearch_ki.jsp?energyterm=kJ/mole&tag=r21&monomerid=50176138&enzyme=Dihydroorotate+dehydrogenase&column=ki&startPg=0&Increment=50&submit=Search

> <PubChem CID>
127043625

> <PubChem SID>
104061810

$$$$

  Mrv2115 07222212352D          

 23 24  0  0  0  0            999 V2000
    0.0000   -4.9500    0.0000 C   0  0  0  0  0  0  0  0  0  0  0  0
    0.7145   -5.3625    0.0000 C   0  0  0  0  0  0  0  0  0  0  0  0
    0.7145   -6.1875    0.0000 O   0  0  0  0  0  0  0  0  0  0  0  0
    1.4289   -4.9500    0.0000 C   0  0  0  0  0  0  0  0  0  0  0  0
    1.4289   -4.1250    0.0000 C   0  0  0  0  0  0  0  0  0  0  0  0
    1.4289   -3.3000    0.0000 N   0  0  0  0  0  0  0  0  0  0  0  0
    2.1434   -5.3625    0.0000 C   0  0  0  0  0  0  0  0  0  0  0  0
    2.1434   -6.1875    0.0000 O   0  0  0  0  0  0  0  0  0  0  0  0
    2.8579   -4.9500    0.0000 N   0  0  0  0  0  0  0  0  0  0  0  0
    3.5724   -5.3625    0.0000 C   0  0  0  0  0  0  0  0  0  0  0  0
    4.2868   -4.9500    0.0000 C   0  0  0  0  0  0  0  0  0  0  0  0
    5.0013   -5.3625    0.0000 C   0  0  0  0  0  0  0  0  0  0  0  0
    5.0013   -6.1875    0.0000 C   0  0  0  0  0  0  0  0  0  0  0  0
    5.7158   -6.6000    0.0000 C   0  0  0  0  0  0  0  0  0  0  0  0
    6.4302   -6.1875    0.0000 C   0  0  0  0  0  0  0  0  0  0  0  0
    7.1447   -6.6000    0.0000 C   0  0  0  0  0  0  0  0  0  0  0  0
    7.1447   -7.4250    0.0000 C   0  0  0  0  0  0  0  0  0  0  0  0
    6.4302   -7.8375    0.0000 C   0  0  0  0  0  0  0  0  0  0  0  0
    5.7158   -7.4250    0.0000 C   0  0  0  0  0  0  0  0  0  0  0  0
    5.0013   -7.8375    0.0000 Cl  0  0  0  0  0  0  0  0  0  0  0  0
    4.2868   -6.6000    0.0000 C   0  0  0  0  0  0  0  0  0  0  0  0
    4.2868   -7.4250    0.0000 Cl  0  0  0  0  0  0  0  0  0  0  0  0
    3.5724   -6.1875    0.0000 C   0  0  0  0  0  0  0  0  0  0  0  0
  1  2  1  0  0  0  0
  2  3  2  0  0  0  0
  2  4  1  0  0  0  0
  4  5  1  0  0  0  0
  5  6  3  0  0  0  0
  4  7  1  0  0  0  0
  7  8  2  0  0  0  0
  7  9  1  0  0  0  0
  9 10  1  0  0  0  0
 10 11  4  0  0  0  0
 11 12  4  0  0  0  0
 12 13  4  0  0  0  0
 13 14  1  0  0  0  0
 14 15  4  0  0  0  0
 15 16  4  0  0  0  0
 16 17  4  0  0  0  0
 17 18  4  0  0  0  0
 18 19  4  0  0  0  0
 14 19  4  0  0  0  0
 19 20  1  0  0  0  0
 13 21  4  0  0  0  0
 21 22  1  0  0  0  0
 21 23  4  0  0  0  0
 10 23  4  0  0  0  0
M  END
> <IC50(uM)>
0.022

> <Outcome>
1.0

> <BindingDB ID>
52794

> <BindingDB MonomerID>
29034

> <BindingDB Ligand Name>
cyanohydroxybutenamide, 24

> <Curation/DataSource>
Curated from the literature by BindingDB

> <Article DOI>
10.1021/jm800963t

> <PMID>
19351152

> <Patent Number>
?

> <Authors>
Davies, M; Heikkil&auml;, T; McConkey, GA; Fishwick, CW; Parsons, MR; Johnson, AP

> <Link to Ligand in BindingDB>
http://www.bindingdb.org/bind/chemsearch/marvin/MolStructure.jsp?monomerid=29034

> <Link to Ligand-Target Pair in BindingDB>
http://www.bindingdb.org/jsp/dbsearch/PrimarySearch_ki.jsp?energyterm=kJ/mole&tag=r21&monomerid=29034&enzyme=Dihydroorotate+dehydrogenase&column=ki&startPg=0&Increment=50&submit=Search

> <PubChem CID>
91896060

> <PubChem SID>
81054463

$$$$

  Mrv2115 07222212352D          

 37 40  0  0  0  0            999 V2000
   -3.2083    2.1568    0.0000 C   0  0  0  0  0  0  0  0  0  0  0  0
   -2.7958    1.4423    0.0000 C   0  0  0  0  0  0  0  0  0  0  0  0
   -3.2083    0.7279    0.0000 O   0  0  0  0  0  0  0  0  0  0  0  0
   -2.7958    0.0134    0.0000 C   0  0  0  0  0  0  0  0  0  0  0  0
   -1.9708    0.0134    0.0000 C   0  0  0  0  0  0  0  0  0  0  0  0
   -1.5583   -0.7011    0.0000 C   0  0  0  0  0  0  0  0  0  0  0  0
   -0.7333   -0.7011    0.0000 N   0  0  0  0  0  0  0  0  0  0  0  0
   -0.2483   -1.3685    0.0000 N   0  0  0  0  0  0  0  0  0  0  0  0
    0.5363   -1.1136    0.0000 C   0  0  0  0  0  0  0  0  0  0  0  0
    0.5363   -0.2886    0.0000 N   0  0  0  0  0  0  0  0  0  0  0  0
   -0.2483   -0.0336    0.0000 C   0  0  0  0  0  0  0  0  0  0  0  0
   -0.5033    0.7510    0.0000 O   0  0  0  0  0  0  0  0  0  0  0  0
    1.1813    0.2258    0.0000 C   0  0  0  0  0  0  0  0  0  0  0  0
    1.9856    0.0422    0.0000 C   0  0  0  0  0  0  0  0  0  0  0  0
    2.3436   -0.7011    0.0000 C   0  0  0  0  0  0  0  0  0  0  0  0
    1.9856   -1.4444    0.0000 O   0  0  0  0  0  0  0  0  0  0  0  0
    1.1813   -1.6280    0.0000 C   0  0  0  0  0  0  0  0  0  0  0  0
   -1.9708   -1.4156    0.0000 C   0  0  0  0  0  0  0  0  0  0  0  0
   -1.5583   -2.1300    0.0000 F   0  0  0  0  0  0  0  0  0  0  0  0
   -2.7958   -1.4156    0.0000 C   0  0  0  0  0  0  0  0  0  0  0  0
   -3.2083   -0.7011    0.0000 C   0  0  0  0  0  0  0  0  0  0  0  0
   -4.0333   -0.7011    0.0000 C   0  0  0  0  0  0  0  0  0  0  0  0
   -4.4458    0.0134    0.0000 O   0  0  0  0  0  0  0  0  0  0  0  0
   -4.4458   -1.4156    0.0000 N   0  0  0  0  0  0  0  0  0  0  0  0
   -5.2708   -1.4156    0.0000 C   0  0  0  0  0  0  0  0  0  0  0  0
   -5.6833   -2.1300    0.0000 C   0  0  0  0  0  0  0  0  0  0  0  0
   -5.2708   -2.8445    0.0000 Cl  0  0  0  0  0  0  0  0  0  0  0  0
   -6.5083   -2.1300    0.0000 C   0  0  0  0  0  0  0  0  0  0  0  0
   -6.9208   -1.4156    0.0000 C   0  0  0  0  0  0  0  0  0  0  0  0
   -7.7458   -1.4156    0.0000 F   0  0  0  0  0  0  0  0  0  0  0  0
   -6.5083   -0.7011    0.0000 C   0  0  0  0  0  0  0  0  0  0  0  0
   -5.6833   -0.7011    0.0000 C   0  0  0  0  0  0  0  0  0  0  0  0
   -5.2708    0.0134    0.0000 Cl  0  0  0  0  0  0  0  0  0  0  0  0
   -1.9708    1.4423    0.0000 C   0  0  0  0  0  0  0  0  0  0  0  0
   -1.9708    0.6173    0.0000 F   0  0  0  0  0  0  0  0  0  0  0  0
   -1.9708    2.2673    0.0000 F   0  0  0  0  0  0  0  0  0  0  0  0
   -1.1458    1.4423    0.0000 F   0  0  0  0  0  0  0  0  0  0  0  0
  1  2  1  0  0  0  0
  2  3  1  0  0  0  0
  3  4  1  0  0  0  0
  4  5  4  0  0  0  0
  5  6  4  0  0  0  0
  6  7  1  0  0  0  0
  7  8  4  0  0  0  0
  8  9  4  0  0  0  0
  9 10  4  0  0  0  0
 10 11  4  0  0  0  0
  7 11  4  0  0  0  0
 11 12  2  0  0  0  0
 10 13  1  0  0  0  0
 13 14  1  0  0  0  0
 14 15  1  0  0  0  0
 15 16  1  0  0  0  0
 16 17  1  0  0  0  0
  9 17  1  0  0  0  0
  6 18  4  0  0  0  0
 18 19  1  0  0  0  0
 18 20  4  0  0  0  0
 20 21  4  0  0  0  0
  4 21  4  0  0  0  0
 21 22  1  0  0  0  0
 22 23  2  0  0  0  0
 22 24  1  0  0  0  0
 24 25  1  0  0  0  0
 25 26  4  0  0  0  0
 26 27  1  0  0  0  0
 26 28  4  0  0  0  0
 28 29  4  0  0  0  0
 29 30  1  0  0  0  0
 29 31  4  0  0  0  0
 31 32  4  0  0  0  0
 25 32  4  0  0  0  0
 32 33  1  0  0  0  0
  2 34  1  0  0  0  0
 34 35  1  0  0  0  0
 34 36  1  0  0  0  0
 34 37  1  0  0  0  0
M  END
> <IC50(uM)>
0.0040999999999999995

> <Outcome>
1.0

> <BindingDB ID>
1020639

> <BindingDB MonomerID>
490568

> <BindingDB Ligand Name>
N-(2,6-dichloro-4-fluorophenyl)-5-fluoro-4-(3-oxo-6,7-dihydro-3H,5H-[1,2,4]triazolo[3,4-c]-[1,4]oxazepin-2(9H)-yl)-2-{[(2S)-1,1,1-trifluoropropan-2-yl]oxy}benzamide::US10968216, Example 236

> <Curation/DataSource>
US Patent

> <Article DOI>
?

> <PMID>
?

> <Patent Number>
US10968216

> <Authors>
Gradl, SN; Nguyen, D; Eis, K; Gunther, J; Stellfeld, T; Janzer, A; Christian, S; Mueller, T; Sheikh, SE; Zhou, HJ; Zhao, C; Sykes, DB; Ferrara, SJ; Liu, K; Herbert, SA; Merz, C; Niehues, M; Nising, CF; Schafer, M; Zimmermann, K; Knablein, J; Thede, K; Faupel, T

> <Link to Ligand in BindingDB>
http://www.bindingdb.org/bind/chemsearch/marvin/MolStructure.jsp?monomerid=490568

> <Link to Ligand-Target Pair in BindingDB>
http://www.bindingdb.org/jsp/dbsearch/PrimarySearch_ki.jsp?energyterm=kJ/mole&tag=r21&monomerid=490568&enzyme=Dihydroorotate+dehydrogenase&column=ki&startPg=0&Increment=50&submit=Search

> <PubChem CID>
134474535

> <PubChem SID>
447117294

$$$$

  Mrv2115 07222212352D          

 27 30  0  0  0  0            999 V2000
    4.5553    5.9907    0.0000 C   0  0  0  0  0  0  0  0  0  0  0  0
    4.8908    5.2370    0.0000 C   0  0  0  0  0  0  0  0  0  0  0  0
    4.4059    4.5695    0.0000 C   0  0  0  0  0  0  0  0  0  0  0  0
    4.6608    3.7849    0.0000 C   0  0  0  0  0  0  0  0  0  0  0  0
    3.9934    3.3000    0.0000 C   0  0  0  0  0  0  0  0  0  0  0  0
    3.9934    2.4750    0.0000 C   0  0  0  0  0  0  0  0  0  0  0  0
    4.7079    2.0625    0.0000 O   0  0  0  0  0  0  0  0  0  0  0  0
    3.2789    2.0625    0.0000 N   0  0  0  0  0  0  0  0  0  0  0  0
    3.2789    1.2375    0.0000 C   0  0  0  0  0  0  0  0  0  0  0  0
    3.9934    0.8250    0.0000 C   0  0  0  0  0  0  0  0  0  0  0  0
    3.9934    0.0000    0.0000 C   0  0  0  0  0  0  0  0  0  0  0  0
    3.2789   -0.4125    0.0000 C   0  0  0  0  0  0  0  0  0  0  0  0
    2.5645    0.0000    0.0000 C   0  0  0  0  0  0  0  0  0  0  0  0
    2.5645    0.8250    0.0000 C   0  0  0  0  0  0  0  0  0  0  0  0
    1.7798    1.0799    0.0000 C   0  0  0  0  0  0  0  0  0  0  0  0
    1.2949    0.4125    0.0000 N   0  0  0  0  0  0  0  0  0  0  0  0
    1.7798   -0.2549    0.0000 N   0  0  0  0  0  0  0  0  0  0  0  0
    1.5249   -1.0396    0.0000 C   0  0  0  0  0  0  0  0  0  0  0  0
    2.0769   -1.6527    0.0000 C   0  0  0  0  0  0  0  0  0  0  0  0
    1.8220   -2.4373    0.0000 C   0  0  0  0  0  0  0  0  0  0  0  0
    1.0150   -2.6088    0.0000 C   0  0  0  0  0  0  0  0  0  0  0  0
    0.7601   -3.3934    0.0000 F   0  0  0  0  0  0  0  0  0  0  0  0
    0.4630   -1.9957    0.0000 C   0  0  0  0  0  0  0  0  0  0  0  0
    0.7179   -1.2111    0.0000 C   0  0  0  0  0  0  0  0  0  0  0  0
    0.1659   -0.5980    0.0000 F   0  0  0  0  0  0  0  0  0  0  0  0
    3.3260    3.7849    0.0000 N   0  0  0  0  0  0  0  0  0  0  0  0
    3.5809    4.5695    0.0000 O   0  0  0  0  0  0  0  0  0  0  0  0
  1  2  1  0  0  0  0
  2  3  1  0  0  0  0
  3  4  4  0  0  0  0
  4  5  4  0  0  0  0
  5  6  1  0  0  0  0
  6  7  2  0  0  0  0
  6  8  1  0  0  0  0
  8  9  1  0  0  0  0
  9 10  1  0  0  0  0
 10 11  1  0  0  0  0
 11 12  1  0  0  0  0
 12 13  1  0  0  0  0
 13 14  4  0  0  0  0
  9 14  1  0  0  0  0
 14 15  4  0  0  0  0
 15 16  4  0  0  0  0
 16 17  4  0  0  0  0
 13 17  4  0  0  0  0
 17 18  1  0  0  0  0
 18 19  4  0  0  0  0
 19 20  4  0  0  0  0
 20 21  4  0  0  0  0
 21 22  1  0  0  0  0
 21 23  4  0  0  0  0
 23 24  4  0  0  0  0
 18 24  4  0  0  0  0
 24 25  1  0  0  0  0
  5 26  4  0  0  0  0
 26 27  4  0  0  0  0
  3 27  4  0  0  0  0
M  END
> <IC50(uM)>
2.44

> <Outcome>
0.0

> <BindingDB ID>
993079

> <BindingDB MonomerID>
62235

> <BindingDB Ligand Name>
MLS-0412040.0001::N-[1-(2,4-difluorophenyl)-4,5,6,7-tetrahydroindazol-4-yl]-5-ethyl-1,2-oxazole-3-carboxamide::N-[1-(2,4-difluorophenyl)-4,5,6,7-tetrahydroindazol-4-yl]-5-ethyl-3-isoxazolecarboxamide::N-[1-(2,4-difluorophenyl)-4,5,6,7-tetrahydroindazol-4-yl]-5-ethyl-isoxazole-3-carboxamide::N-[1-[2,4-bis(fluoranyl)phenyl]-4,5,6,7-tetrahydroindazol-4-yl]-5-ethyl-1,2-oxazole-3-carboxamide::US10889564, Example 10::cid_44182100

> <Curation/DataSource>
US Patent

> <Article DOI>
?

> <PMID>
?

> <Patent Number>
US10889564

> <Authors>
Lain, S; Drummond, C; Leeuwen, IV; Haraldsson, M; Johansson, L; Sandberg, L; Yngve, U

> <Link to Ligand in BindingDB>
http://www.bindingdb.org/bind/chemsearch/marvin/MolStructure.jsp?monomerid=62235

> <Link to Ligand-Target Pair in BindingDB>
http://www.bindingdb.org/jsp/dbsearch/PrimarySearch_ki.jsp?energyterm=kJ/mole&tag=r21&monomerid=62235&enzyme=Dihydroorotate+dehydrogenase&column=ki&startPg=0&Increment=50&submit=Search

> <PubChem CID>
44182100

> <PubChem SID>
252641373

$$$$

  Mrv2115 07222212352D          

 34 37  0  0  0  0            999 V2000
   -5.1659   -2.8414    0.0000 C   0  0  0  0  0  0  0  0  0  0  0  0
   -5.5784   -2.1269    0.0000 C   0  0  0  0  0  0  0  0  0  0  0  0
   -6.4034   -2.1269    0.0000 C   0  0  0  0  0  0  0  0  0  0  0  0
   -6.8159   -1.4124    0.0000 C   0  0  0  0  0  0  0  0  0  0  0  0
   -6.4034   -0.6979    0.0000 N   0  0  0  0  0  0  0  0  0  0  0  0
   -5.5784   -0.6979    0.0000 C   0  0  0  0  0  0  0  0  0  0  0  0
   -5.1659   -1.4124    0.0000 C   0  0  0  0  0  0  0  0  0  0  0  0
   -4.3409   -1.4124    0.0000 N   0  0  0  0  0  0  0  0  0  0  0  0
   -3.9284   -0.6979    0.0000 C   0  0  0  0  0  0  0  0  0  0  0  0
   -4.3409    0.0165    0.0000 O   0  0  0  0  0  0  0  0  0  0  0  0
   -3.1034   -0.6979    0.0000 C   0  0  0  0  0  0  0  0  0  0  0  0
   -2.6909    0.0165    0.0000 C   0  0  0  0  0  0  0  0  0  0  0  0
   -1.8659    0.0165    0.0000 C   0  0  0  0  0  0  0  0  0  0  0  0
   -1.4534    0.7310    0.0000 F   0  0  0  0  0  0  0  0  0  0  0  0
   -1.4534   -0.6979    0.0000 C   0  0  0  0  0  0  0  0  0  0  0  0
   -0.6284   -0.6979    0.0000 N   0  0  0  0  0  0  0  0  0  0  0  0
   -0.1435   -1.3654    0.0000 N   0  0  0  0  0  0  0  0  0  0  0  0
    0.6411   -1.1104    0.0000 C   0  0  0  0  0  0  0  0  0  0  0  0
    0.6411   -0.2854    0.0000 N   0  0  0  0  0  0  0  0  0  0  0  0
   -0.1435   -0.0305    0.0000 C   0  0  0  0  0  0  0  0  0  0  0  0
   -0.3984    0.7541    0.0000 O   0  0  0  0  0  0  0  0  0  0  0  0
    1.3556    0.1271    0.0000 C   0  0  0  0  0  0  0  0  0  0  0  0
    2.0701   -0.2854    0.0000 C   0  0  0  0  0  0  0  0  0  0  0  0
    2.0701   -1.1104    0.0000 C   0  0  0  0  0  0  0  0  0  0  0  0
    1.3556   -1.5229    0.0000 C   0  0  0  0  0  0  0  0  0  0  0  0
   -1.8659   -1.4124    0.0000 C   0  0  0  0  0  0  0  0  0  0  0  0
   -2.6909   -1.4124    0.0000 C   0  0  0  0  0  0  0  0  0  0  0  0
   -3.1034   -2.1269    0.0000 O   0  0  0  0  0  0  0  0  0  0  0  0
   -2.6909   -2.8414    0.0000 C   0  0  0  0  0  0  0  0  0  0  0  0
   -1.8659   -2.8414    0.0000 C   0  0  0  0  0  0  0  0  0  0  0  0
   -3.1034   -3.5558    0.0000 C   0  0  0  0  0  0  0  0  0  0  0  0
   -2.6909   -4.2703    0.0000 N   0  0  0  0  0  0  0  0  0  0  0  0
   -1.8659   -4.2703    0.0000 C   0  0  0  0  0  0  0  0  0  0  0  0
   -3.1034   -4.9848    0.0000 C   0  0  0  0  0  0  0  0  0  0  0  0
  1  2  1  0  0  0  0
  2  3  4  0  0  0  0
  3  4  4  0  0  0  0
  4  5  4  0  0  0  0
  5  6  4  0  0  0  0
  6  7  4  0  0  0  0
  2  7  4  0  0  0  0
  7  8  1  0  0  0  0
  8  9  1  0  0  0  0
  9 10  2  0  0  0  0
  9 11  1  0  0  0  0
 11 12  4  0  0  0  0
 12 13  4  0  0  0  0
 13 14  1  0  0  0  0
 13 15  4  0  0  0  0
 15 16  1  0  0  0  0
 16 17  4  0  0  0  0
 17 18  4  0  0  0  0
 18 19  4  0  0  0  0
 19 20  4  0  0  0  0
 16 20  4  0  0  0  0
 20 21  2  0  0  0  0
 19 22  1  0  0  0  0
 22 23  1  0  0  0  0
 23 24  1  0  0  0  0
 24 25  1  0  0  0  0
 18 25  1  0  0  0  0
 15 26  4  0  0  0  0
 26 27  4  0  0  0  0
 11 27  4  0  0  0  0
 27 28  1  0  0  0  0
 28 29  1  0  0  0  0
 29 30  1  0  0  0  0
 29 31  1  0  0  0  0
 31 32  1  0  0  0  0
 32 33  1  0  0  0  0
 32 34  1  0  0  0  0
M  END
> <IC50(uM)>
0.14

> <Outcome>
1.0

> <BindingDB ID>
1020677

> <BindingDB MonomerID>
490603

> <BindingDB Ligand Name>
2-{[(2S)-1-(dimethylamino)propan-2-yl]oxy}-5-fluoro-N-(4-methylpyridin-3-yl)-4-(3-oxo-5,6,7,8-tetrahydro[1,2,4]triazolo[4,3-a]pyridin-2(3H)-yl)benzamide::US10968216, Example 271

> <Curation/DataSource>
US Patent

> <Article DOI>
?

> <PMID>
?

> <Patent Number>
US10968216

> <Authors>
Gradl, SN; Nguyen, D; Eis, K; Gunther, J; Stellfeld, T; Janzer, A; Christian, S; Mueller, T; Sheikh, SE; Zhou, HJ; Zhao, C; Sykes, DB; Ferrara, SJ; Liu, K; Herbert, SA; Merz, C; Niehues, M; Nising, CF; Schafer, M; Zimmermann, K; Knablein, J; Thede, K; Faupel, T

> <Link to Ligand in BindingDB>
http://www.bindingdb.org/bind/chemsearch/marvin/MolStructure.jsp?monomerid=490603

> <Link to Ligand-Target Pair in BindingDB>
http://www.bindingdb.org/jsp/dbsearch/PrimarySearch_ki.jsp?energyterm=kJ/mole&tag=r21&monomerid=490603&enzyme=Dihydroorotate+dehydrogenase&column=ki&startPg=0&Increment=50&submit=Search

> <PubChem CID>
134474464

> <PubChem SID>
447117329

$$$$

  Mrv2115 07222212352D          

 20 21  0  0  0  0            999 V2000
    0.7145   -1.2375    0.0000 O   0  0  0  0  0  0  0  0  0  0  0  0
    1.4289   -1.6500    0.0000 C   0  0  0  0  0  0  0  0  0  0  0  0
    2.1434   -1.2375    0.0000 O   0  0  0  0  0  0  0  0  0  0  0  0
    1.4289   -2.4750    0.0000 C   0  0  0  0  0  0  0  0  0  0  0  0
    2.1434   -2.8875    0.0000 N   0  0  0  0  0  0  0  0  0  0  0  0
    2.1434   -3.7125    0.0000 C   0  0  0  0  0  0  0  0  0  0  0  0
    2.8579   -4.1250    0.0000 O   0  0  0  0  0  0  0  0  0  0  0  0
    1.4289   -4.1250    0.0000 N   0  0  0  0  0  0  0  0  0  0  0  0
    0.7145   -3.7125    0.0000 C   0  0  0  0  0  0  0  0  0  0  0  0
    0.0000   -4.1250    0.0000 O   0  0  0  0  0  0  0  0  0  0  0  0
    0.7145   -2.8875    0.0000 C   0  0  0  0  0  0  0  0  0  0  0  0
    0.0000   -2.4750    0.0000 C   0  0  0  0  0  0  0  0  0  0  0  0
   -0.7145   -2.8875    0.0000 C   0  0  0  0  0  0  0  0  0  0  0  0
   -1.4289   -2.4750    0.0000 C   0  0  0  0  0  0  0  0  0  0  0  0
   -2.1434   -2.8875    0.0000 C   0  0  0  0  0  0  0  0  0  0  0  0
   -2.8579   -2.4750    0.0000 C   0  0  0  0  0  0  0  0  0  0  0  0
   -2.8579   -1.6500    0.0000 C   0  0  0  0  0  0  0  0  0  0  0  0
   -2.1434   -1.2375    0.0000 C   0  0  0  0  0  0  0  0  0  0  0  0
   -2.1434   -0.4125    0.0000 Cl  0  0  0  0  0  0  0  0  0  0  0  0
   -1.4289   -1.6500    0.0000 C   0  0  0  0  0  0  0  0  0  0  0  0
  1  2  2  0  0  0  0
  2  3  1  0  0  0  0
  2  4  1  0  0  0  0
  4  5  4  0  0  0  0
  5  6  4  0  0  0  0
  6  7  2  0  0  0  0
  6  8  4  0  0  0  0
  8  9  4  0  0  0  0
  9 10  2  0  0  0  0
  9 11  4  0  0  0  0
  4 11  4  0  0  0  0
 11 12  1  0  0  0  0
 12 13  1  0  0  0  0
 13 14  1  0  0  0  0
 14 15  4  0  0  0  0
 15 16  4  0  0  0  0
 16 17  4  0  0  0  0
 17 18  4  0  0  0  0
 18 19  1  0  0  0  0
 18 20  4  0  0  0  0
 14 20  4  0  0  0  0
M  STY  2   1 DAT   2 DAT
M  SAL   1  1   5
M  SDT   1 MRV_IMPLICIT_H                                        
M  SDD   1     0.5304   -0.4125    DR    ALL  0       0  
M  SED   1 IMPL_H1
M  SAL   2  1   8
M  SDT   2 MRV_IMPLICIT_H                                        
M  SDD   2     0.6482   -0.4125    DR    ALL  0       0  
M  SED   2 IMPL_H1
M  END
> <IC50(uM)>
2.57

> <Outcome>
0.0

> <BindingDB ID>
50555213

> <BindingDB MonomerID>
50211689

> <BindingDB Ligand Name>
CHEMBL3910083

> <Curation/DataSource>
ChEMBL

> <Article DOI>
10.1016/j.bmc.2017.01.009

> <PMID>
28118956

> <Patent Number>
?

> <Authors>
Inaoka, DK; Iida, M; Hashimoto, S; Tabuchi, T; Kuranaga, T; Balogun, EO; Honma, T; Tanaka, A; Harada, S; Nara, T; Kita, K; Inoue, M

> <Link to Ligand in BindingDB>
http://www.bindingdb.org/bind/chemsearch/marvin/MolStructure.jsp?monomerid=50211689

> <Link to Ligand-Target Pair in BindingDB>
http://www.bindingdb.org/jsp/dbsearch/PrimarySearch_ki.jsp?energyterm=kJ/mole&tag=r21&monomerid=50211689&enzyme=Dihydroorotate+dehydrogenase&column=ki&startPg=0&Increment=50&submit=Search

> <PubChem CID>
134132798

> <PubChem SID>
375983032

$$$$

  Mrv2115 07222212352D          

 25 28  0  0  0  0            999 V2000
    2.1434   -2.8875    0.0000 O   0  0  0  0  0  0  0  0  0  0  0  0
    1.4289   -2.4750    0.0000 C   0  0  0  0  0  0  0  0  0  0  0  0
    0.7145   -2.8875    0.0000 O   0  0  0  0  0  0  0  0  0  0  0  0
    1.4289   -1.6500    0.0000 C   0  0  0  0  0  0  0  0  0  0  0  0
    0.7145   -1.2375    0.0000 C   0  0  0  0  0  0  0  0  0  0  0  0
    0.7145   -0.4125    0.0000 C   0  0  0  0  0  0  0  0  0  0  0  0
    0.0000    0.0000    0.0000 C   0  0  0  0  0  0  0  0  0  0  0  0
   -0.7145   -0.4125    0.0000 C   0  0  0  0  0  0  0  0  0  0  0  0
   -1.4289    0.0000    0.0000 C   0  0  0  0  0  0  0  0  0  0  0  0
   -1.4289    0.8250    0.0000 C   0  0  0  0  0  0  0  0  0  0  0  0
   -2.1434    1.2375    0.0000 N   0  0  0  0  0  0  0  0  0  0  0  0
   -2.8579    0.8250    0.0000 C   0  0  0  0  0  0  0  0  0  0  0  0
   -3.5724    1.2375    0.0000 C   0  0  0  0  0  0  0  0  0  0  0  0
   -3.5724    2.0625    0.0000 O   0  0  0  0  0  0  0  0  0  0  0  0
   -2.8579    2.4750    0.0000 C   0  0  0  0  0  0  0  0  0  0  0  0
   -2.1434    2.0625    0.0000 C   0  0  0  0  0  0  0  0  0  0  0  0
   -0.7145    1.2375    0.0000 C   0  0  0  0  0  0  0  0  0  0  0  0
    0.0000    0.8250    0.0000 C   0  0  0  0  0  0  0  0  0  0  0  0
    1.4289    0.0000    0.0000 N   0  0  0  0  0  0  0  0  0  0  0  0
    2.1434   -0.4125    0.0000 C   0  0  0  0  0  0  0  0  0  0  0  0
    2.8579    0.0000    0.0000 C   0  0  0  0  0  0  0  0  0  0  0  0
    3.5724   -0.4125    0.0000 C   0  0  0  0  0  0  0  0  0  0  0  0
    3.5724   -1.2375    0.0000 C   0  0  0  0  0  0  0  0  0  0  0  0
    2.8579   -1.6500    0.0000 C   0  0  0  0  0  0  0  0  0  0  0  0
    2.1434   -1.2375    0.0000 C   0  0  0  0  0  0  0  0  0  0  0  0
  1  2  2  0  0  0  0
  2  3  1  0  0  0  0
  2  4  1  0  0  0  0
  4  5  4  0  0  0  0
  5  6  4  0  0  0  0
  6  7  1  0  0  0  0
  7  8  4  0  0  0  0
  8  9  4  0  0  0  0
  9 10  4  0  0  0  0
 10 11  1  0  0  0  0
 11 12  1  0  0  0  0
 12 13  1  0  0  0  0
 13 14  1  0  0  0  0
 14 15  1  0  0  0  0
 15 16  1  0  0  0  0
 11 16  1  0  0  0  0
 10 17  4  0  0  0  0
 17 18  4  0  0  0  0
  7 18  4  0  0  0  0
  6 19  4  0  0  0  0
 19 20  4  0  0  0  0
 20 21  4  0  0  0  0
 21 22  4  0  0  0  0
 22 23  4  0  0  0  0
 23 24  4  0  0  0  0
 24 25  4  0  0  0  0
  4 25  4  0  0  0  0
 20 25  4  0  0  0  0
M  END
> <IC50(uM)>
200.0

> <Outcome>
0.0

> <BindingDB ID>
51126175

> <BindingDB MonomerID>
50461862

> <BindingDB Ligand Name>
CHEMBL4226410

> <Curation/DataSource>
ChEMBL

> <Article DOI>
10.1021/acs.jmedchem.7b01862

> <PMID>
29727569

> <Patent Number>
?

> <Authors>
Madak, JT; Cuthbertson, CR; Miyata, Y; Tamura, S; Petrunak, EM; Stuckey, JA; Han, Y; He, M; Sun, D; Showalter, HD; Neamati, N

> <Link to Ligand in BindingDB>
http://www.bindingdb.org/bind/chemsearch/marvin/MolStructure.jsp?monomerid=50461862

> <Link to Ligand-Target Pair in BindingDB>
http://www.bindingdb.org/jsp/dbsearch/PrimarySearch_ki.jsp?energyterm=kJ/mole&tag=r21&monomerid=50461862&enzyme=Dihydroorotate+dehydrogenase&column=ki&startPg=0&Increment=50&submit=Search

> <PubChem CID>
145969257

> <PubChem SID>
433929127

$$$$

  Mrv2115 07222212352D          

 34 36  0  0  0  0            999 V2000
    0.0000   -4.1250    0.0000 C   0  0  0  0  0  0  0  0  0  0  0  0
    0.0000   -4.9500    0.0000 C   0  0  0  0  0  0  0  0  0  0  0  0
   -0.6674   -5.4349    0.0000 N   0  0  0  0  0  0  0  0  0  0  0  0
   -0.4125   -6.2195    0.0000 N   0  0  0  0  0  0  0  0  0  0  0  0
   -0.8974   -6.8870    0.0000 C   0  0  0  0  0  0  0  0  0  0  0  0
   -0.5619   -7.6407    0.0000 C   0  0  0  0  0  0  0  0  0  0  0  0
   -1.0468   -8.3081    0.0000 C   0  0  0  0  0  0  0  0  0  0  0  0
   -0.7112   -9.0618    0.0000 O   0  0  0  0  0  0  0  0  0  0  0  0
    0.1093   -9.1480    0.0000 C   0  0  0  0  0  0  0  0  0  0  0  0
    0.5942   -8.4806    0.0000 C   0  0  0  0  0  0  0  0  0  0  0  0
    0.4448   -9.9017    0.0000 C   0  0  0  0  0  0  0  0  0  0  0  0
   -0.3089  -10.2372    0.0000 F   0  0  0  0  0  0  0  0  0  0  0  0
    1.1985   -9.5661    0.0000 F   0  0  0  0  0  0  0  0  0  0  0  0
    0.7804  -10.6554    0.0000 F   0  0  0  0  0  0  0  0  0  0  0  0
   -1.8673   -8.2219    0.0000 C   0  0  0  0  0  0  0  0  0  0  0  0
   -2.3522   -8.8893    0.0000 C   0  0  0  0  0  0  0  0  0  0  0  0
   -2.0166   -9.6430    0.0000 O   0  0  0  0  0  0  0  0  0  0  0  0
   -3.1727   -8.8031    0.0000 N   0  0  0  0  0  0  0  0  0  0  0  0
   -3.6576   -9.4705    0.0000 C   0  0  0  0  0  0  0  0  0  0  0  0
   -3.3220  -10.2242    0.0000 C   0  0  0  0  0  0  0  0  0  0  0  0
   -3.8070  -10.8916    0.0000 C   0  0  0  0  0  0  0  0  0  0  0  0
   -4.6274  -10.8054    0.0000 C   0  0  0  0  0  0  0  0  0  0  0  0
   -4.9630  -10.0517    0.0000 C   0  0  0  0  0  0  0  0  0  0  0  0
   -4.4781   -9.3843    0.0000 C   0  0  0  0  0  0  0  0  0  0  0  0
   -4.8136   -8.6306    0.0000 F   0  0  0  0  0  0  0  0  0  0  0  0
   -2.2028   -7.4682    0.0000 C   0  0  0  0  0  0  0  0  0  0  0  0
   -1.7179   -6.8007    0.0000 C   0  0  0  0  0  0  0  0  0  0  0  0
   -2.0535   -6.0471    0.0000 F   0  0  0  0  0  0  0  0  0  0  0  0
    0.4125   -6.2195    0.0000 C   0  0  0  0  0  0  0  0  0  0  0  0
    0.8974   -6.8870    0.0000 O   0  0  0  0  0  0  0  0  0  0  0  0
    0.6674   -5.4349    0.0000 N   0  0  0  0  0  0  0  0  0  0  0  0
    1.4521   -5.1800    0.0000 C   0  0  0  0  0  0  0  0  0  0  0  0
    1.6236   -4.3730    0.0000 C   0  0  0  0  0  0  0  0  0  0  0  0
    2.0652   -5.7320    0.0000 C   0  0  0  0  0  0  0  0  0  0  0  0
  1  2  1  0  0  0  0
  2  3  4  0  0  0  0
  3  4  4  0  0  0  0
  4  5  1  0  0  0  0
  5  6  4  0  0  0  0
  6  7  4  0  0  0  0
  7  8  1  0  0  0  0
  8  9  1  0  0  0  0
  9 10  1  0  0  0  0
  9 11  1  0  0  0  0
 11 12  1  0  0  0  0
 11 13  1  0  0  0  0
 11 14  1  0  0  0  0
  7 15  4  0  0  0  0
 15 16  1  0  0  0  0
 16 17  2  0  0  0  0
 16 18  1  0  0  0  0
 18 19  1  0  0  0  0
 19 20  4  0  0  0  0
 20 21  4  0  0  0  0
 21 22  4  0  0  0  0
 22 23  4  0  0  0  0
 23 24  4  0  0  0  0
 19 24  4  0  0  0  0
 24 25  1  0  0  0  0
 15 26  4  0  0  0  0
 26 27  4  0  0  0  0
  5 27  4  0  0  0  0
 27 28  1  0  0  0  0
  4 29  4  0  0  0  0
 29 30  2  0  0  0  0
 29 31  4  0  0  0  0
  2 31  4  0  0  0  0
 31 32  1  0  0  0  0
 32 33  1  0  0  0  0
 32 34  1  0  0  0  0
M  END
> <IC50(uM)>
0.287

> <Outcome>
1.0

> <BindingDB ID>
1098590; 972436; 972435; 1098589

> <BindingDB MonomerID>
470341

> <BindingDB Ligand Name>
5-fluoro-N-(2-fluorophenyl)-4-[3-methyl-5-oxo-4-(propan-2-yl)-4,5-dihydro-1H-1,2,4-triazol-1-yl]-2-{[(2S)-1,1,1-trifluoropropan-2-yl]oxy}benzamide::US10815215, Example 3::US11130745, Example 3; 5-fluoro-N-(2-fluorophenyl)-4-[3-methyl-5-oxo-4-(propan-2-yl)-4,5-dihydro-1H-1,2,4-triazol-1-yl]-2-{[(2S)-1,1,1-trifluoropropan-2-yl]oxy}benzamide::US10815215, Example 3

> <Curation/DataSource>
US Patent

> <Article DOI>
?

> <PMID>
?

> <Patent Number>
US11130745; US10815215

> <Authors>
Gradl, SN; Nguyen, D; Eis, K; Gunther, J; Stellfeld, T; Janzer, A; Christian, S; Muller, T; Sheikh, SE; Sykes, DB; Ferrara, SJ; Krober, M; Merz, C; Niehues, M; Schafer, M; Zimmermann, K; Nising, CF; Gradl, SN; Nguyen, D; Eis, K; Gunther, J; Stellfeld, T; Janzer, A; Christian, S; Muller, T; Sheikh, SE; Zhou, HJ; Zhao, C; Sykes, DB; Ferrara, SJ; Liu, K; Krober, M; Merz, C; Niehues, M; Schafer, M; Zimmermann, K; Nising, CF

> <Link to Ligand in BindingDB>
http://www.bindingdb.org/bind/chemsearch/marvin/MolStructure.jsp?monomerid=470341

> <Link to Ligand-Target Pair in BindingDB>
http://www.bindingdb.org/jsp/dbsearch/PrimarySearch_ki.jsp?energyterm=kJ/mole&tag=r21&monomerid=470341&enzyme=Dihydroorotate+dehydrogenase&column=ki&startPg=0&Increment=50&submit=Search

> <PubChem CID>
134470064

> <PubChem SID>
441609518

$$$$

  Mrv2115 07222212352D          

 33 36  0  0  0  0            999 V2000
   -3.1034    2.1599    0.0000 C   0  0  0  0  0  0  0  0  0  0  0  0
   -2.6909    1.4455    0.0000 C   0  0  0  0  0  0  0  0  0  0  0  0
   -3.1034    0.7310    0.0000 O   0  0  0  0  0  0  0  0  0  0  0  0
   -2.6909    0.0165    0.0000 C   0  0  0  0  0  0  0  0  0  0  0  0
   -1.8659    0.0165    0.0000 C   0  0  0  0  0  0  0  0  0  0  0  0
   -1.4534   -0.6979    0.0000 C   0  0  0  0  0  0  0  0  0  0  0  0
   -0.6284   -0.6979    0.0000 N   0  0  0  0  0  0  0  0  0  0  0  0
   -0.1435   -1.3654    0.0000 N   0  0  0  0  0  0  0  0  0  0  0  0
    0.6411   -1.1104    0.0000 C   0  0  0  0  0  0  0  0  0  0  0  0
    0.6411   -0.2854    0.0000 N   0  0  0  0  0  0  0  0  0  0  0  0
   -0.1435   -0.0305    0.0000 C   0  0  0  0  0  0  0  0  0  0  0  0
   -0.3984    0.7541    0.0000 O   0  0  0  0  0  0  0  0  0  0  0  0
    1.3556    0.1271    0.0000 C   0  0  0  0  0  0  0  0  0  0  0  0
    2.0701   -0.2854    0.0000 C   0  0  0  0  0  0  0  0  0  0  0  0
    2.0701   -1.1104    0.0000 C   0  0  0  0  0  0  0  0  0  0  0  0
    1.3556   -1.5229    0.0000 C   0  0  0  0  0  0  0  0  0  0  0  0
   -1.8659   -1.4124    0.0000 C   0  0  0  0  0  0  0  0  0  0  0  0
   -1.4534   -2.1269    0.0000 F   0  0  0  0  0  0  0  0  0  0  0  0
   -2.6909   -1.4124    0.0000 C   0  0  0  0  0  0  0  0  0  0  0  0
   -3.1034   -0.6979    0.0000 C   0  0  0  0  0  0  0  0  0  0  0  0
   -3.9284   -0.6979    0.0000 C   0  0  0  0  0  0  0  0  0  0  0  0
   -4.3409    0.0165    0.0000 O   0  0  0  0  0  0  0  0  0  0  0  0
   -4.3409   -1.4124    0.0000 N   0  0  0  0  0  0  0  0  0  0  0  0
   -5.1659   -1.4124    0.0000 C   0  0  0  0  0  0  0  0  0  0  0  0
   -5.5784   -2.1269    0.0000 C   0  0  0  0  0  0  0  0  0  0  0  0
   -6.4034   -2.1269    0.0000 C   0  0  0  0  0  0  0  0  0  0  0  0
   -6.8159   -1.4124    0.0000 O   0  0  0  0  0  0  0  0  0  0  0  0
   -6.4034   -0.6979    0.0000 C   0  0  0  0  0  0  0  0  0  0  0  0
   -5.5784   -0.6979    0.0000 C   0  0  0  0  0  0  0  0  0  0  0  0
   -1.8659    1.4455    0.0000 C   0  0  0  0  0  0  0  0  0  0  0  0
   -1.8659    0.6205    0.0000 F   0  0  0  0  0  0  0  0  0  0  0  0
   -1.8659    2.2705    0.0000 F   0  0  0  0  0  0  0  0  0  0  0  0
   -1.0409    1.4455    0.0000 F   0  0  0  0  0  0  0  0  0  0  0  0
  1  2  1  0  0  0  0
  2  3  1  0  0  0  0
  3  4  1  0  0  0  0
  4  5  4  0  0  0  0
  5  6  4  0  0  0  0
  6  7  1  0  0  0  0
  7  8  4  0  0  0  0
  8  9  4  0  0  0  0
  9 10  4  0  0  0  0
 10 11  4  0  0  0  0
  7 11  4  0  0  0  0
 11 12  2  0  0  0  0
 10 13  1  0  0  0  0
 13 14  1  0  0  0  0
 14 15  1  0  0  0  0
 15 16  1  0  0  0  0
  9 16  1  0  0  0  0
  6 17  4  0  0  0  0
 17 18  1  0  0  0  0
 17 19  4  0  0  0  0
 19 20  4  0  0  0  0
  4 20  4  0  0  0  0
 20 21  1  0  0  0  0
 21 22  2  0  0  0  0
 21 23  1  0  0  0  0
 23 24  1  0  0  0  0
 24 25  1  0  0  0  0
 25 26  1  0  0  0  0
 26 27  1  0  0  0  0
 27 28  1  0  0  0  0
 28 29  1  0  0  0  0
 24 29  1  0  0  0  0
  2 30  1  0  0  0  0
 30 31  1  0  0  0  0
 30 32  1  0  0  0  0
 30 33  1  0  0  0  0
M  END
> <IC50(uM)>
2.5

> <Outcome>
0.0

> <BindingDB ID>
1020467

> <BindingDB MonomerID>
490415

> <BindingDB Ligand Name>
5-fluoro-4-(3-oxo-5,6,7,8-tetrahydro[1,2,4]triazolo[4,3-a]pyridin-2(3H)-yl)-N-(tetrahydro-2H-pyran-4-yl)-2-{[(2S)-1,1,1-trifluoropropan-2-yl]oxy}benzamide::US10968216, Example 83

> <Curation/DataSource>
US Patent

> <Article DOI>
?

> <PMID>
?

> <Patent Number>
US10968216

> <Authors>
Gradl, SN; Nguyen, D; Eis, K; Gunther, J; Stellfeld, T; Janzer, A; Christian, S; Mueller, T; Sheikh, SE; Zhou, HJ; Zhao, C; Sykes, DB; Ferrara, SJ; Liu, K; Herbert, SA; Merz, C; Niehues, M; Nising, CF; Schafer, M; Zimmermann, K; Knablein, J; Thede, K; Faupel, T

> <Link to Ligand in BindingDB>
http://www.bindingdb.org/bind/chemsearch/marvin/MolStructure.jsp?monomerid=490415

> <Link to Ligand-Target Pair in BindingDB>
http://www.bindingdb.org/jsp/dbsearch/PrimarySearch_ki.jsp?energyterm=kJ/mole&tag=r21&monomerid=490415&enzyme=Dihydroorotate+dehydrogenase&column=ki&startPg=0&Increment=50&submit=Search

> <PubChem CID>
134474513

> <PubChem SID>
447117142

$$$$

  Mrv2115 07222212352D          

 27 30  0  0  0  0            999 V2000
    4.0668    2.3479    0.0000 C   0  0  0  0  0  0  0  0  0  0  0  0
    3.3523    1.9354    0.0000 C   0  0  0  0  0  0  0  0  0  0  0  0
    3.3523    1.1104    0.0000 C   0  0  0  0  0  0  0  0  0  0  0  0
    2.6378    0.6979    0.0000 C   0  0  0  0  0  0  0  0  0  0  0  0
    2.6378   -0.1271    0.0000 C   0  0  0  0  0  0  0  0  0  0  0  0
    1.9233   -0.5396    0.0000 O   0  0  0  0  0  0  0  0  0  0  0  0
    3.3523   -0.5396    0.0000 O   0  0  0  0  0  0  0  0  0  0  0  0
    1.9233    1.1104    0.0000 C   0  0  0  0  0  0  0  0  0  0  0  0
    1.1387    0.8555    0.0000 N   0  0  0  0  0  0  0  0  0  0  0  0
    0.6538    1.5229    0.0000 C   0  0  0  0  0  0  0  0  0  0  0  0
   -0.1712    1.5229    0.0000 C   0  0  0  0  0  0  0  0  0  0  0  0
   -0.5837    0.8085    0.0000 C   0  0  0  0  0  0  0  0  0  0  0  0
   -1.4087    0.8085    0.0000 C   0  0  0  0  0  0  0  0  0  0  0  0
   -1.8212    1.5229    0.0000 C   0  0  0  0  0  0  0  0  0  0  0  0
   -2.6462    1.5229    0.0000 C   0  0  0  0  0  0  0  0  0  0  0  0
   -3.0587    0.8085    0.0000 C   0  0  0  0  0  0  0  0  0  0  0  0
   -3.8837    0.8085    0.0000 C   0  0  0  0  0  0  0  0  0  0  0  0
   -4.2962    1.5229    0.0000 C   0  0  0  0  0  0  0  0  0  0  0  0
   -3.8837    2.2374    0.0000 C   0  0  0  0  0  0  0  0  0  0  0  0
   -3.0587    2.2374    0.0000 C   0  0  0  0  0  0  0  0  0  0  0  0
   -2.6462    2.9519    0.0000 F   0  0  0  0  0  0  0  0  0  0  0  0
   -1.4087    2.2374    0.0000 C   0  0  0  0  0  0  0  0  0  0  0  0
   -0.5837    2.2374    0.0000 C   0  0  0  0  0  0  0  0  0  0  0  0
   -0.1712    2.9519    0.0000 F   0  0  0  0  0  0  0  0  0  0  0  0
    1.1387    2.1904    0.0000 N   0  0  0  0  0  0  0  0  0  0  0  0
    1.9233    1.9354    0.0000 C   0  0  0  0  0  0  0  0  0  0  0  0
    2.6378    2.3479    0.0000 C   0  0  0  0  0  0  0  0  0  0  0  0
  1  2  1  0  0  0  0
  2  3  4  0  0  0  0
  3  4  4  0  0  0  0
  4  5  1  0  0  0  0
  5  6  2  0  0  0  0
  5  7  1  0  0  0  0
  4  8  4  0  0  0  0
  8  9  4  0  0  0  0
  9 10  4  0  0  0  0
 10 11  1  0  0  0  0
 11 12  4  0  0  0  0
 12 13  4  0  0  0  0
 13 14  4  0  0  0  0
 14 15  1  0  0  0  0
 15 16  4  0  0  0  0
 16 17  4  0  0  0  0
 17 18  4  0  0  0  0
 18 19  4  0  0  0  0
 19 20  4  0  0  0  0
 15 20  4  0  0  0  0
 20 21  1  0  0  0  0
 14 22  4  0  0  0  0
 22 23  4  0  0  0  0
 11 23  4  0  0  0  0
 23 24  1  0  0  0  0
 10 25  4  0  0  0  0
 25 26  4  0  0  0  0
  8 26  4  0  0  0  0
 26 27  4  0  0  0  0
  2 27  4  0  0  0  0
M  STY  1   1 DAT
M  SAL   1  1   9
M  SDT   1 MRV_IMPLICIT_H                                        
M  SDD   1     0.5304   -0.4125    DR    ALL  0       0  
M  SED   1 IMPL_H1
M  END
> <IC50(uM)>
0.172

> <Outcome>
1.0

> <BindingDB ID>
297757

> <BindingDB MonomerID>
155413

> <BindingDB Ligand Name>
US9006454, I25

> <Curation/DataSource>
US Patent

> <Article DOI>
?

> <PMID>
?

> <Patent Number>
US9006454

> <Authors>
Thunuguntla, SS; Subramanya, H; Kunnam, SR; Sanivaru Vijay, SR; Bingi, C; Kusanur, R; Schwarz, M; Arlt, M

> <Link to Ligand in BindingDB>
http://www.bindingdb.org/bind/chemsearch/marvin/MolStructure.jsp?monomerid=155413

> <Link to Ligand-Target Pair in BindingDB>
http://www.bindingdb.org/jsp/dbsearch/PrimarySearch_ki.jsp?energyterm=kJ/mole&tag=r21&monomerid=155413&enzyme=Dihydroorotate+dehydrogenase&column=ki&startPg=0&Increment=50&submit=Search

> <PubChem CID>
46945993

> <PubChem SID>
253658350

$$$$

  Mrv2115 07222212352D          

 37 41  0  0  0  0            999 V2000
   -6.2148   -2.0935    0.0000 C   0  0  0  0  0  0  0  0  0  0  0  0
   -5.3898   -2.0935    0.0000 C   0  0  0  0  0  0  0  0  0  0  0  0
   -4.9048   -1.4261    0.0000 N   0  0  0  0  0  0  0  0  0  0  0  0
   -4.1202   -1.6810    0.0000 C   0  0  0  0  0  0  0  0  0  0  0  0
   -3.4058   -1.2685    0.0000 C   0  0  0  0  0  0  0  0  0  0  0  0
   -2.6913   -1.6810    0.0000 C   0  0  0  0  0  0  0  0  0  0  0  0
   -2.6913   -2.5060    0.0000 C   0  0  0  0  0  0  0  0  0  0  0  0
   -1.9768   -2.9185    0.0000 N   0  0  0  0  0  0  0  0  0  0  0  0
   -1.2623   -2.5060    0.0000 C   0  0  0  0  0  0  0  0  0  0  0  0
   -0.5479   -2.9185    0.0000 O   0  0  0  0  0  0  0  0  0  0  0  0
   -1.2623   -1.6810    0.0000 C   0  0  0  0  0  0  0  0  0  0  0  0
   -1.9768   -1.2685    0.0000 C   0  0  0  0  0  0  0  0  0  0  0  0
   -1.9768   -0.4435    0.0000 C   0  0  0  0  0  0  0  0  0  0  0  0
   -2.6913   -0.0310    0.0000 F   0  0  0  0  0  0  0  0  0  0  0  0
   -1.2623   -0.0310    0.0000 C   0  0  0  0  0  0  0  0  0  0  0  0
   -1.2623    0.7940    0.0000 N   0  0  0  0  0  0  0  0  0  0  0  0
   -0.5949    1.2789    0.0000 N   0  0  0  0  0  0  0  0  0  0  0  0
   -0.8498    2.0635    0.0000 C   0  0  0  0  0  0  0  0  0  0  0  0
   -1.6748    2.0635    0.0000 N   0  0  0  0  0  0  0  0  0  0  0  0
   -1.9298    1.2789    0.0000 C   0  0  0  0  0  0  0  0  0  0  0  0
   -2.7144    1.0239    0.0000 O   0  0  0  0  0  0  0  0  0  0  0  0
   -2.0873    2.7780    0.0000 C   0  0  0  0  0  0  0  0  0  0  0  0
   -1.6748    3.4925    0.0000 C   0  0  0  0  0  0  0  0  0  0  0  0
   -0.8498    3.4925    0.0000 C   0  0  0  0  0  0  0  0  0  0  0  0
   -0.4373    2.7780    0.0000 C   0  0  0  0  0  0  0  0  0  0  0  0
   -0.5479   -0.4435    0.0000 C   0  0  0  0  0  0  0  0  0  0  0  0
   -0.5479   -1.2685    0.0000 C   0  0  0  0  0  0  0  0  0  0  0  0
    0.1666   -1.6810    0.0000 O   0  0  0  0  0  0  0  0  0  0  0  0
    0.8811   -1.2685    0.0000 C   0  0  0  0  0  0  0  0  0  0  0  0
    0.8811   -0.4435    0.0000 C   0  0  0  0  0  0  0  0  0  0  0  0
    1.5955   -1.6810    0.0000 C   0  0  0  0  0  0  0  0  0  0  0  0
    1.1830   -2.3955    0.0000 F   0  0  0  0  0  0  0  0  0  0  0  0
    2.0080   -0.9666    0.0000 F   0  0  0  0  0  0  0  0  0  0  0  0
    2.3100   -2.0935    0.0000 F   0  0  0  0  0  0  0  0  0  0  0  0
   -3.4058   -2.9185    0.0000 C   0  0  0  0  0  0  0  0  0  0  0  0
   -4.1202   -2.5060    0.0000 C   0  0  0  0  0  0  0  0  0  0  0  0
   -4.9048   -2.7610    0.0000 S   0  0  0  0  0  0  0  0  0  0  0  0
  1  2  1  0  0  0  0
  2  3  4  0  0  0  0
  3  4  4  0  0  0  0
  4  5  4  0  0  0  0
  5  6  4  0  0  0  0
  6  7  4  0  0  0  0
  7  8  1  0  0  0  0
  8  9  1  0  0  0  0
  9 10  2  0  0  0  0
  9 11  1  0  0  0  0
 11 12  4  0  0  0  0
 12 13  4  0  0  0  0
 13 14  1  0  0  0  0
 13 15  4  0  0  0  0
 15 16  1  0  0  0  0
 16 17  4  0  0  0  0
 17 18  4  0  0  0  0
 18 19  4  0  0  0  0
 19 20  4  0  0  0  0
 16 20  4  0  0  0  0
 20 21  2  0  0  0  0
 19 22  1  0  0  0  0
 22 23  1  0  0  0  0
 23 24  1  0  0  0  0
 24 25  1  0  0  0  0
 18 25  1  0  0  0  0
 15 26  4  0  0  0  0
 26 27  4  0  0  0  0
 11 27  4  0  0  0  0
 27 28  1  0  0  0  0
 28 29  1  0  0  0  0
 29 30  1  0  0  0  0
 29 31  1  0  0  0  0
 31 32  1  0  0  0  0
 31 33  1  0  0  0  0
 31 34  1  0  0  0  0
  7 35  4  0  0  0  0
 35 36  4  0  0  0  0
  4 36  4  0  0  0  0
 36 37  4  0  0  0  0
  2 37  4  0  0  0  0
M  END
> <IC50(uM)>
3.1

> <Outcome>
0.0

> <BindingDB ID>
1020488

> <BindingDB MonomerID>
490436

> <BindingDB Ligand Name>
5-fluoro-N-(2-methyl-1,3-benzothiazol-6-yl)-4-(3-oxo-5,6,7,8-tetrahydro[1,2,4]triazolo[4,3-a]pyridin-2(3H)-yl)-2-{[(2S)-1,1,1-trifluoropropan-2-yl]oxy}benzamide::US10968216, Example 104

> <Curation/DataSource>
US Patent

> <Article DOI>
?

> <PMID>
?

> <Patent Number>
US10968216

> <Authors>
Gradl, SN; Nguyen, D; Eis, K; Gunther, J; Stellfeld, T; Janzer, A; Christian, S; Mueller, T; Sheikh, SE; Zhou, HJ; Zhao, C; Sykes, DB; Ferrara, SJ; Liu, K; Herbert, SA; Merz, C; Niehues, M; Nising, CF; Schafer, M; Zimmermann, K; Knablein, J; Thede, K; Faupel, T

> <Link to Ligand in BindingDB>
http://www.bindingdb.org/bind/chemsearch/marvin/MolStructure.jsp?monomerid=490436

> <Link to Ligand-Target Pair in BindingDB>
http://www.bindingdb.org/jsp/dbsearch/PrimarySearch_ki.jsp?energyterm=kJ/mole&tag=r21&monomerid=490436&enzyme=Dihydroorotate+dehydrogenase&column=ki&startPg=0&Increment=50&submit=Search

> <PubChem CID>
134473870

> <PubChem SID>
447117163

$$$$

  Mrv2115 07222212352D          

 29 31  0  0  0  0            999 V2000
   -2.1434   -1.2375    0.0000 C   0  0  0  0  0  0  0  0  0  0  0  0
   -2.8579   -1.6500    0.0000 O   0  0  0  0  0  0  0  0  0  0  0  0
   -2.8579   -2.4750    0.0000 C   0  0  0  0  0  0  0  0  0  0  0  0
   -2.1434   -2.8875    0.0000 C   0  0  0  0  0  0  0  0  0  0  0  0
   -2.1434   -3.7125    0.0000 C   0  0  0  0  0  0  0  0  0  0  0  0
   -2.8579   -4.1250    0.0000 C   0  0  0  0  0  0  0  0  0  0  0  0
   -3.5724   -3.7125    0.0000 C   0  0  0  0  0  0  0  0  0  0  0  0
   -4.2868   -4.1250    0.0000 C   0  0  0  0  0  0  0  0  0  0  0  0
   -5.0013   -3.7125    0.0000 N   0  0  0  0  0  0  0  0  0  0  0  0
   -5.7158   -4.1250    0.0000 C   0  0  0  0  0  0  0  0  0  0  0  0
   -5.7158   -4.9500    0.0000 C   0  0  0  0  0  0  0  0  0  0  0  0
   -6.4302   -5.3625    0.0000 N   0  0  0  0  0  0  0  0  0  0  0  0
   -6.4302   -6.1875    0.0000 C   0  0  0  0  0  0  0  0  0  0  0  0
   -5.7158   -6.6000    0.0000 C   0  0  0  0  0  0  0  0  0  0  0  0
   -5.7158   -7.4250    0.0000 C   0  0  0  0  0  0  0  0  0  0  0  0
   -6.4302   -7.8375    0.0000 C   0  0  0  0  0  0  0  0  0  0  0  0
   -6.4302   -8.6625    0.0000 C   0  0  0  0  0  0  0  0  0  0  0  0
   -7.1447   -7.4250    0.0000 C   0  0  0  0  0  0  0  0  0  0  0  0
   -7.1447   -6.6000    0.0000 C   0  0  0  0  0  0  0  0  0  0  0  0
   -7.8592   -6.1875    0.0000 C   0  0  0  0  0  0  0  0  0  0  0  0
   -7.8592   -5.3625    0.0000 O   0  0  0  0  0  0  0  0  0  0  0  0
   -8.5737   -6.6000    0.0000 O   0  0  0  0  0  0  0  0  0  0  0  0
   -5.0013   -5.3625    0.0000 C   0  0  0  0  0  0  0  0  0  0  0  0
   -4.2868   -4.9500    0.0000 C   0  0  0  0  0  0  0  0  0  0  0  0
   -3.5724   -5.3625    0.0000 C   0  0  0  0  0  0  0  0  0  0  0  0
   -2.8579   -5.7750    0.0000 F   0  0  0  0  0  0  0  0  0  0  0  0
   -3.9849   -6.0770    0.0000 F   0  0  0  0  0  0  0  0  0  0  0  0
   -3.1599   -4.6480    0.0000 F   0  0  0  0  0  0  0  0  0  0  0  0
   -3.5724   -2.8875    0.0000 C   0  0  0  0  0  0  0  0  0  0  0  0
  1  2  1  0  0  0  0
  2  3  1  0  0  0  0
  3  4  4  0  0  0  0
  4  5  4  0  0  0  0
  5  6  4  0  0  0  0
  6  7  4  0  0  0  0
  7  8  1  0  0  0  0
  8  9  4  0  0  0  0
  9 10  4  0  0  0  0
 10 11  4  0  0  0  0
 11 12  1  0  0  0  0
 12 13  1  0  0  0  0
 13 14  4  0  0  0  0
 14 15  4  0  0  0  0
 15 16  4  0  0  0  0
 16 17  1  0  0  0  0
 16 18  4  0  0  0  0
 18 19  4  0  0  0  0
 13 19  4  0  0  0  0
 19 20  1  0  0  0  0
 20 21  2  0  0  0  0
 20 22  1  0  0  0  0
 11 23  4  0  0  0  0
 23 24  4  0  0  0  0
  8 24  4  0  0  0  0
 24 25  1  0  0  0  0
 25 26  1  0  0  0  0
 25 27  1  0  0  0  0
 25 28  1  0  0  0  0
  7 29  4  0  0  0  0
  3 29  4  0  0  0  0
M  END
> <IC50(uM)>
0.012

> <Outcome>
1.0

> <BindingDB ID>
220003

> <BindingDB MonomerID>
102473

> <BindingDB Ligand Name>
US8536165, 67

> <Curation/DataSource>
US Patent

> <Article DOI>
?

> <PMID>
?

> <Patent Number>
US8536165

> <Authors>
Castro Palomino Laria, JC; Terricabras Belart, E; Erra Sola, M; Navarro Romero, E; Fonquerna Pou, S; Cardus Figueras, A; Lozoya Toribio, ME

> <Link to Ligand in BindingDB>
http://www.bindingdb.org/bind/chemsearch/marvin/MolStructure.jsp?monomerid=102473

> <Link to Ligand-Target Pair in BindingDB>
http://www.bindingdb.org/jsp/dbsearch/PrimarySearch_ki.jsp?energyterm=kJ/mole&tag=r21&monomerid=102473&enzyme=Dihydroorotate+dehydrogenase&column=ki&startPg=0&Increment=50&submit=Search

> <PubChem CID>
46847896

> <PubChem SID>
172097764

$$$$

  Mrv2115 07222212352D          

 36 38  0  0  0  0            999 V2000
    2.1434   -3.7125    0.0000 C   0  0  0  0  0  0  0  0  0  0  0  0
    1.4289   -4.1250    0.0000 C   0  0  0  0  0  0  0  0  0  0  0  0
    1.4289   -4.9500    0.0000 N   0  0  0  0  0  0  0  0  0  0  0  0
    0.7615   -5.4349    0.0000 C   0  0  0  0  0  0  0  0  0  0  0  0
   -0.0231   -5.1800    0.0000 C   0  0  0  0  0  0  0  0  0  0  0  0
   -0.1946   -4.3730    0.0000 O   0  0  0  0  0  0  0  0  0  0  0  0
    1.0164   -6.2195    0.0000 N   0  0  0  0  0  0  0  0  0  0  0  0
    1.8414   -6.2195    0.0000 N   0  0  0  0  0  0  0  0  0  0  0  0
    2.3264   -6.8870    0.0000 C   0  0  0  0  0  0  0  0  0  0  0  0
    3.1468   -6.8007    0.0000 C   0  0  0  0  0  0  0  0  0  0  0  0
    3.6318   -7.4682    0.0000 C   0  0  0  0  0  0  0  0  0  0  0  0
    4.4522   -7.3820    0.0000 O   0  0  0  0  0  0  0  0  0  0  0  0
    4.7878   -6.6283    0.0000 C   0  0  0  0  0  0  0  0  0  0  0  0
    4.3029   -5.9608    0.0000 C   0  0  0  0  0  0  0  0  0  0  0  0
    5.6083   -6.5420    0.0000 C   0  0  0  0  0  0  0  0  0  0  0  0
    5.6945   -7.3625    0.0000 F   0  0  0  0  0  0  0  0  0  0  0  0
    5.5221   -5.7216    0.0000 F   0  0  0  0  0  0  0  0  0  0  0  0
    6.4288   -6.4558    0.0000 F   0  0  0  0  0  0  0  0  0  0  0  0
    3.2962   -8.2219    0.0000 C   0  0  0  0  0  0  0  0  0  0  0  0
    3.7811   -8.8893    0.0000 C   0  0  0  0  0  0  0  0  0  0  0  0
    3.4456   -9.6430    0.0000 O   0  0  0  0  0  0  0  0  0  0  0  0
    4.6016   -8.8031    0.0000 N   0  0  0  0  0  0  0  0  0  0  0  0
    5.0865   -9.4705    0.0000 C   0  0  0  0  0  0  0  0  0  0  0  0
    5.9070   -9.3843    0.0000 C   0  0  0  0  0  0  0  0  0  0  0  0
    6.2426   -8.6306    0.0000 Cl  0  0  0  0  0  0  0  0  0  0  0  0
    6.3919  -10.0517    0.0000 C   0  0  0  0  0  0  0  0  0  0  0  0
    6.0564  -10.8054    0.0000 C   0  0  0  0  0  0  0  0  0  0  0  0
    5.2359  -10.8916    0.0000 C   0  0  0  0  0  0  0  0  0  0  0  0
    4.9003  -11.6453    0.0000 O   0  0  0  0  0  0  0  0  0  0  0  0
    4.7510  -10.2242    0.0000 C   0  0  0  0  0  0  0  0  0  0  0  0
    3.9305  -10.3104    0.0000 F   0  0  0  0  0  0  0  0  0  0  0  0
    2.4757   -8.3081    0.0000 C   0  0  0  0  0  0  0  0  0  0  0  0
    1.9908   -7.6407    0.0000 C   0  0  0  0  0  0  0  0  0  0  0  0
    1.1703   -7.7269    0.0000 F   0  0  0  0  0  0  0  0  0  0  0  0
    2.0964   -5.4349    0.0000 C   0  0  0  0  0  0  0  0  0  0  0  0
    2.8810   -5.1800    0.0000 O   0  0  0  0  0  0  0  0  0  0  0  0
  1  2  1  0  0  0  0
  2  3  1  0  0  0  0
  3  4  4  0  0  0  0
  4  5  1  0  0  0  0
  5  6  1  0  0  0  0
  4  7  4  0  0  0  0
  7  8  4  0  0  0  0
  8  9  1  0  0  0  0
  9 10  4  0  0  0  0
 10 11  4  0  0  0  0
 11 12  1  0  0  0  0
 12 13  1  0  0  0  0
 13 14  1  0  0  0  0
 13 15  1  0  0  0  0
 15 16  1  0  0  0  0
 15 17  1  0  0  0  0
 15 18  1  0  0  0  0
 11 19  4  0  0  0  0
 19 20  1  0  0  0  0
 20 21  2  0  0  0  0
 20 22  1  0  0  0  0
 22 23  1  0  0  0  0
 23 24  4  0  0  0  0
 24 25  1  0  0  0  0
 24 26  4  0  0  0  0
 26 27  4  0  0  0  0
 27 28  4  0  0  0  0
 28 29  1  0  0  0  0
 28 30  4  0  0  0  0
 23 30  4  0  0  0  0
 30 31  1  0  0  0  0
 19 32  4  0  0  0  0
 32 33  4  0  0  0  0
  9 33  4  0  0  0  0
 33 34  1  0  0  0  0
  8 35  4  0  0  0  0
  3 35  4  0  0  0  0
 35 36  2  0  0  0  0
M  END
> <IC50(uM)>
0.004999999999999999

> <Outcome>
1.0

> <BindingDB ID>
972652; 1098806

> <BindingDB MonomerID>
470530

> <BindingDB Ligand Name>
N-(6-chloro-2-fluoro-3-hydroxyphenyl)-4-[4-ethyl-3-(hydroxymethyl)-5-oxo-4,5-dihydro-1H-1,2,4-triazol-1-yl]-5-fluoro-2-{[(2S)-1,1,1-trifluoropropan-2-yl]oxy}benzamide::US10815215, Example 190; N-(6-chloro-2-fluoro-3-hydroxyphenyl)-4-[4-ethyl-3-(hydroxymethyl)-5-oxo-4,5-dihydro-1H-1,2,4-triazol-1-yl]-5-fluoro-2-{[(2S)-1,1,1-trifluoropropan-2-yl]oxy}benzamide::US10815215, Example 190::US11130745, Example 190

> <Curation/DataSource>
US Patent

> <Article DOI>
?

> <PMID>
?

> <Patent Number>
US10815215; US11130745

> <Authors>
Gradl, SN; Nguyen, D; Eis, K; Gunther, J; Stellfeld, T; Janzer, A; Christian, S; Muller, T; Sheikh, SE; Zhou, HJ; Zhao, C; Sykes, DB; Ferrara, SJ; Liu, K; Krober, M; Merz, C; Niehues, M; Schafer, M; Zimmermann, K; Nising, CF; Gradl, SN; Nguyen, D; Eis, K; Gunther, J; Stellfeld, T; Janzer, A; Christian, S; Muller, T; Sheikh, SE; Sykes, DB; Ferrara, SJ; Krober, M; Merz, C; Niehues, M; Schafer, M; Zimmermann, K; Nising, CF

> <Link to Ligand in BindingDB>
http://www.bindingdb.org/bind/chemsearch/marvin/MolStructure.jsp?monomerid=470530

> <Link to Ligand-Target Pair in BindingDB>
http://www.bindingdb.org/jsp/dbsearch/PrimarySearch_ki.jsp?energyterm=kJ/mole&tag=r21&monomerid=470530&enzyme=Dihydroorotate+dehydrogenase&column=ki&startPg=0&Increment=50&submit=Search

> <PubChem CID>
134469966

> <PubChem SID>
441609706

$$$$

  Mrv2115 07222212352D          

 25 27  0  0  0  0            999 V2000
   -0.7145    1.2375    0.0000 C   0  0  0  0  0  0  0  0  0  0  0  0
    0.0000    0.8250    0.0000 C   0  0  0  0  0  0  0  0  0  0  0  0
    0.0000   -0.0000    0.0000 O   0  0  0  0  0  0  0  0  0  0  0  0
    0.7145   -0.4125    0.0000 C   0  0  0  0  0  0  0  0  0  0  0  0
    1.4289   -0.0000    0.0000 O   0  0  0  0  0  0  0  0  0  0  0  0
    0.7145   -1.2375    0.0000 C   0  0  0  0  0  0  0  0  0  0  0  0
    1.3819   -1.7224    0.0000 S   0  0  0  0  0  0  0  0  0  0  0  0
    1.1270   -2.5070    0.0000 C   0  0  0  0  0  0  0  0  0  0  0  0
    1.6119   -3.1745    0.0000 N   0  0  0  0  0  0  0  0  0  0  0  0
    1.2763   -3.9282    0.0000 C   0  0  0  0  0  0  0  0  0  0  0  0
    1.7613   -4.5956    0.0000 C   0  0  0  0  0  0  0  0  0  0  0  0
    1.4257   -5.3493    0.0000 C   0  0  0  0  0  0  0  0  0  0  0  0
    0.6052   -5.4355    0.0000 C   0  0  0  0  0  0  0  0  0  0  0  0
    0.2697   -6.1892    0.0000 O   0  0  0  0  0  0  0  0  0  0  0  0
    0.7546   -6.8566    0.0000 C   0  0  0  0  0  0  0  0  0  0  0  0
    0.1203   -4.7681    0.0000 C   0  0  0  0  0  0  0  0  0  0  0  0
    0.4559   -4.0144    0.0000 C   0  0  0  0  0  0  0  0  0  0  0  0
    0.3020   -2.5070    0.0000 N   0  0  0  0  0  0  0  0  0  0  0  0
    0.0470   -1.7224    0.0000 C   0  0  0  0  0  0  0  0  0  0  0  0
   -0.7376   -1.4675    0.0000 C   0  0  0  0  0  0  0  0  0  0  0  0
   -1.3507   -2.0195    0.0000 C   0  0  0  0  0  0  0  0  0  0  0  0
   -2.1353   -1.7646    0.0000 C   0  0  0  0  0  0  0  0  0  0  0  0
   -2.3068   -0.9576    0.0000 C   0  0  0  0  0  0  0  0  0  0  0  0
   -1.6937   -0.4056    0.0000 C   0  0  0  0  0  0  0  0  0  0  0  0
   -0.9091   -0.6605    0.0000 C   0  0  0  0  0  0  0  0  0  0  0  0
  1  2  1  0  0  0  0
  2  3  1  0  0  0  0
  3  4  1  0  0  0  0
  4  5  2  0  0  0  0
  4  6  1  0  0  0  0
  6  7  4  0  0  0  0
  7  8  4  0  0  0  0
  8  9  1  0  0  0  0
  9 10  1  0  0  0  0
 10 11  4  0  0  0  0
 11 12  4  0  0  0  0
 12 13  4  0  0  0  0
 13 14  1  0  0  0  0
 14 15  1  0  0  0  0
 13 16  4  0  0  0  0
 16 17  4  0  0  0  0
 10 17  4  0  0  0  0
  8 18  4  0  0  0  0
 18 19  4  0  0  0  0
  6 19  4  0  0  0  0
 19 20  1  0  0  0  0
 20 21  4  0  0  0  0
 21 22  4  0  0  0  0
 22 23  4  0  0  0  0
 23 24  4  0  0  0  0
 24 25  4  0  0  0  0
 20 25  4  0  0  0  0
M  END
> <IC50(uM)>
1.44

> <Outcome>
0.0

> <BindingDB ID>
50312267

> <BindingDB MonomerID>
50071605

> <BindingDB Ligand Name>
CHEMBL3410598

> <Curation/DataSource>
ChEMBL

> <Article DOI>
10.1021/jm501127s

> <PMID>
25580811

> <Patent Number>
?

> <Authors>
Zhu, J; Han, L; Diao, Y; Ren, X; Xu, M; Xu, L; Li, S; Li, Q; Dong, D; Huang, J; Liu, X; Zhao, Z; Wang, R; Zhu, L; Xu, Y; Qian, X; Li, H

> <Link to Ligand in BindingDB>
http://www.bindingdb.org/bind/chemsearch/marvin/MolStructure.jsp?monomerid=50071605

> <Link to Ligand-Target Pair in BindingDB>
http://www.bindingdb.org/jsp/dbsearch/PrimarySearch_ki.jsp?energyterm=kJ/mole&tag=r21&monomerid=50071605&enzyme=Dihydroorotate+dehydrogenase&column=ki&startPg=0&Increment=50&submit=Search

> <PubChem CID>
16210733

> <PubChem SID>
313072552

$$$$

  Mrv2115 07222212352D          

 33 35  0  0  0  0            999 V2000
    2.1434   -3.7125    0.0000 C   0  0  0  0  0  0  0  0  0  0  0  0
    2.8579   -4.1250    0.0000 C   0  0  0  0  0  0  0  0  0  0  0  0
    3.5724   -3.7125    0.0000 C   0  0  0  0  0  0  0  0  0  0  0  0
    4.2868   -4.1250    0.0000 C   0  0  0  0  0  0  0  0  0  0  0  0
    4.2868   -4.9500    0.0000 C   0  0  0  0  0  0  0  0  0  0  0  0
    5.0013   -3.7125    0.0000 O   0  0  0  0  0  0  0  0  0  0  0  0
    5.0013   -2.8875    0.0000 C   0  0  0  0  0  0  0  0  0  0  0  0
    4.2868   -2.4750    0.0000 C   0  0  0  0  0  0  0  0  0  0  0  0
    4.2868   -1.6500    0.0000 C   0  0  0  0  0  0  0  0  0  0  0  0
    3.5724   -1.2375    0.0000 N   0  0  0  0  0  0  0  0  0  0  0  0
    2.8187   -1.5731    0.0000 N   0  0  0  0  0  0  0  0  0  0  0  0
    2.2666   -0.9600    0.0000 C   0  0  0  0  0  0  0  0  0  0  0  0
    1.4462   -1.0462    0.0000 C   0  0  0  0  0  0  0  0  0  0  0  0
    1.1106   -1.7999    0.0000 C   0  0  0  0  0  0  0  0  0  0  0  0
    2.6791   -0.2455    0.0000 N   0  0  0  0  0  0  0  0  0  0  0  0
    2.3436    0.5082    0.0000 C   0  0  0  0  0  0  0  0  0  0  0  0
    3.4861   -0.4170    0.0000 C   0  0  0  0  0  0  0  0  0  0  0  0
    4.0992    0.1350    0.0000 O   0  0  0  0  0  0  0  0  0  0  0  0
    5.0013   -1.2375    0.0000 C   0  0  0  0  0  0  0  0  0  0  0  0
    5.0013   -0.4125    0.0000 F   0  0  0  0  0  0  0  0  0  0  0  0
    5.7158   -1.6500    0.0000 C   0  0  0  0  0  0  0  0  0  0  0  0
    5.7158   -2.4750    0.0000 C   0  0  0  0  0  0  0  0  0  0  0  0
    6.4302   -2.8875    0.0000 C   0  0  0  0  0  0  0  0  0  0  0  0
    6.4302   -3.7125    0.0000 O   0  0  0  0  0  0  0  0  0  0  0  0
    7.1447   -2.4750    0.0000 N   0  0  0  0  0  0  0  0  0  0  0  0
    7.8592   -2.8875    0.0000 C   0  0  0  0  0  0  0  0  0  0  0  0
    8.5737   -2.4750    0.0000 C   0  0  0  0  0  0  0  0  0  0  0  0
    8.5737   -1.6500    0.0000 C   0  0  0  0  0  0  0  0  0  0  0  0
    9.2881   -2.8875    0.0000 C   0  0  0  0  0  0  0  0  0  0  0  0
    9.2881   -3.7125    0.0000 C   0  0  0  0  0  0  0  0  0  0  0  0
    8.5737   -4.1250    0.0000 C   0  0  0  0  0  0  0  0  0  0  0  0
    7.8592   -3.7125    0.0000 C   0  0  0  0  0  0  0  0  0  0  0  0
    7.1447   -4.1250    0.0000 F   0  0  0  0  0  0  0  0  0  0  0  0
  1  2  1  0  0  0  0
  2  3  1  0  0  0  0
  3  4  1  0  0  0  0
  4  5  1  0  0  0  0
  4  6  1  0  0  0  0
  6  7  1  0  0  0  0
  7  8  4  0  0  0  0
  8  9  4  0  0  0  0
  9 10  1  0  0  0  0
 10 11  4  0  0  0  0
 11 12  4  0  0  0  0
 12 13  1  0  0  0  0
 13 14  1  0  0  0  0
 12 15  4  0  0  0  0
 15 16  1  0  0  0  0
 15 17  4  0  0  0  0
 10 17  4  0  0  0  0
 17 18  2  0  0  0  0
  9 19  4  0  0  0  0
 19 20  1  0  0  0  0
 19 21  4  0  0  0  0
 21 22  4  0  0  0  0
  7 22  4  0  0  0  0
 22 23  1  0  0  0  0
 23 24  2  0  0  0  0
 23 25  1  0  0  0  0
 25 26  1  0  0  0  0
 26 27  4  0  0  0  0
 27 28  1  0  0  0  0
 27 29  4  0  0  0  0
 29 30  4  0  0  0  0
 30 31  4  0  0  0  0
 31 32  4  0  0  0  0
 26 32  4  0  0  0  0
 32 33  1  0  0  0  0
M  END
> <IC50(uM)>
0.003

> <Outcome>
1.0

> <BindingDB ID>
1098618; 972464; 972463; 1098617

> <BindingDB MonomerID>
470358

> <BindingDB Ligand Name>
4-(3-ethyl-4-methyl-5-oxo-4,5-dihydro-1H-1,2,4-triazol-1-yl)-5-fluoro-N-(2-fluoro-6-methylphenyl)-2-[(2S)-pentan-2-yloxy]benzamide::US10815215, Example 17::US11130745, Example 17; 4-(3-ethyl-4-methyl-5-oxo-4,5-dihydro-1H-1,2,4-triazol-1-yl)-5-fluoro-N-(2-fluoro-6-methylphenyl)-2-[(2S)-pentan-2-yloxy]benzamide::US10815215, Example 17

> <Curation/DataSource>
US Patent

> <Article DOI>
?

> <PMID>
?

> <Patent Number>
US11130745; US10815215

> <Authors>
Gradl, SN; Nguyen, D; Eis, K; Gunther, J; Stellfeld, T; Janzer, A; Christian, S; Muller, T; Sheikh, SE; Sykes, DB; Ferrara, SJ; Krober, M; Merz, C; Niehues, M; Schafer, M; Zimmermann, K; Nising, CF; Gradl, SN; Nguyen, D; Eis, K; Gunther, J; Stellfeld, T; Janzer, A; Christian, S; Muller, T; Sheikh, SE; Zhou, HJ; Zhao, C; Sykes, DB; Ferrara, SJ; Liu, K; Krober, M; Merz, C; Niehues, M; Schafer, M; Zimmermann, K; Nising, CF

> <Link to Ligand in BindingDB>
http://www.bindingdb.org/bind/chemsearch/marvin/MolStructure.jsp?monomerid=470358

> <Link to Ligand-Target Pair in BindingDB>
http://www.bindingdb.org/jsp/dbsearch/PrimarySearch_ki.jsp?energyterm=kJ/mole&tag=r21&monomerid=470358&enzyme=Dihydroorotate+dehydrogenase&column=ki&startPg=0&Increment=50&submit=Search

> <PubChem CID>
134470039

> <PubChem SID>
441609535

$$$$

  Mrv2115 07222212352D          

 31 34  0  0  0  0            999 V2000
    0.7145   -2.8875    0.0000 C   0  0  0  0  0  0  0  0  0  0  0  0
    0.0000   -2.4750    0.0000 C   0  0  0  0  0  0  0  0  0  0  0  0
   -0.7145   -2.8875    0.0000 C   0  0  0  0  0  0  0  0  0  0  0  0
   -1.4289   -2.4750    0.0000 C   0  0  0  0  0  0  0  0  0  0  0  0
   -1.4289   -1.6500    0.0000 C   0  0  0  0  0  0  0  0  0  0  0  0
   -0.7145   -1.2375    0.0000 C   0  0  0  0  0  0  0  0  0  0  0  0
    0.0000   -1.6500    0.0000 C   0  0  0  0  0  0  0  0  0  0  0  0
    0.7145   -1.2375    0.0000 N   0  0  0  0  0  0  0  0  0  0  0  0
    0.7145   -0.4125    0.0000 N   0  0  0  0  0  0  0  0  0  0  0  0
    1.4289    0.0000    0.0000 C   0  0  0  0  0  0  0  0  0  0  0  0
    1.4289    0.8250    0.0000 C   0  0  0  0  0  0  0  0  0  0  0  0
    2.1434    1.2375    0.0000 C   0  0  0  0  0  0  0  0  0  0  0  0
    0.7145    1.2375    0.0000 C   0  0  0  0  0  0  0  0  0  0  0  0
    2.1434   -0.4125    0.0000 C   0  0  0  0  0  0  0  0  0  0  0  0
    2.8579    0.0000    0.0000 C   0  0  0  0  0  0  0  0  0  0  0  0
    3.5724   -0.4125    0.0000 C   0  0  0  0  0  0  0  0  0  0  0  0
    4.2868   -0.0000    0.0000 C   0  0  0  0  0  0  0  0  0  0  0  0
    4.3731    0.8205    0.0000 C   0  0  0  0  0  0  0  0  0  0  0  0
    5.1800    0.9920    0.0000 N   0  0  0  0  0  0  0  0  0  0  0  0
    5.5156    1.7457    0.0000 C   0  0  0  0  0  0  0  0  0  0  0  0
    5.5925    0.2775    0.0000 C   0  0  0  0  0  0  0  0  0  0  0  0
    6.4130    0.1913    0.0000 C   0  0  0  0  0  0  0  0  0  0  0  0
    6.8979    0.8587    0.0000 C   0  0  0  0  0  0  0  0  0  0  0  0
    6.7486   -0.5624    0.0000 O   0  0  0  0  0  0  0  0  0  0  0  0
    5.0405   -0.3356    0.0000 N   0  0  0  0  0  0  0  0  0  0  0  0
    3.5724   -1.2375    0.0000 C   0  0  0  0  0  0  0  0  0  0  0  0
    4.2868   -1.6500    0.0000 F   0  0  0  0  0  0  0  0  0  0  0  0
    2.8579   -1.6500    0.0000 C   0  0  0  0  0  0  0  0  0  0  0  0
    2.1434   -1.2375    0.0000 C   0  0  0  0  0  0  0  0  0  0  0  0
    1.4289   -1.6500    0.0000 C   0  0  0  0  0  0  0  0  0  0  0  0
    1.4289   -2.4750    0.0000 O   0  0  0  0  0  0  0  0  0  0  0  0
  1  2  1  0  0  0  0
  2  3  4  0  0  0  0
  3  4  4  0  0  0  0
  4  5  4  0  0  0  0
  5  6  4  0  0  0  0
  6  7  4  0  0  0  0
  2  7  4  0  0  0  0
  7  8  1  0  0  0  0
  8  9  4  0  0  0  0
  9 10  4  0  0  0  0
 10 11  1  0  0  0  0
 11 12  1  0  0  0  0
 11 13  1  0  0  0  0
 10 14  4  0  0  0  0
 14 15  4  0  0  0  0
 15 16  4  0  0  0  0
 16 17  1  0  0  0  0
 17 18  4  0  0  0  0
 18 19  4  0  0  0  0
 19 20  1  0  0  0  0
 19 21  4  0  0  0  0
 21 22  1  0  0  0  0
 22 23  1  0  0  0  0
 22 24  1  0  0  0  0
 21 25  4  0  0  0  0
 17 25  4  0  0  0  0
 16 26  4  0  0  0  0
 26 27  1  0  0  0  0
 26 28  4  0  0  0  0
 28 29  4  0  0  0  0
 14 29  4  0  0  0  0
 29 30  4  0  0  0  0
  8 30  4  0  0  0  0
 30 31  2  0  0  0  0
M  END
> <IC50(uM)>
0.0026

> <Outcome>
1.0

> <BindingDB ID>
1121377

> <BindingDB MonomerID>
530443

> <BindingDB Ligand Name>
(R*)-7-Fluoro-6-(5-(1-hydroxyethyl)-1-methyl-1H-1,2,4-triazol-3-yl)-4-isopropyl- 2-(o-tolyl)phthalazin-1(2H)-one.::WO2022070068, Example 15

> <Curation/DataSource>
Curated from the literature by BindingDB

> <Article DOI>
?

> <PMID>
WO2022070068

> <Patent Number>
?

> <Authors>
Lindsey, D; Scott, K; Zhuming, Z

> <Link to Ligand in BindingDB>
http://www.bindingdb.org/bind/chemsearch/marvin/MolStructure.jsp?monomerid=530443

> <Link to Ligand-Target Pair in BindingDB>
http://www.bindingdb.org/jsp/dbsearch/PrimarySearch_ki.jsp?energyterm=kJ/mole&tag=r21&monomerid=530443&enzyme=Dihydroorotate+dehydrogenase&column=ki&startPg=0&Increment=50&submit=Search

> <PubChem CID>
?

> <PubChem SID>
?

$$$$

  Mrv2115 07222212352D          

 26 29  0  0  0  0            999 V2000
   -1.4289   -4.1250    0.0000 C   0  0  0  0  0  0  0  0  0  0  0  0
   -2.1434   -3.7125    0.0000 C   0  0  0  0  0  0  0  0  0  0  0  0
   -2.8579   -4.1250    0.0000 N   0  0  0  0  0  0  0  0  0  0  0  0
   -3.5724   -3.7125    0.0000 C   0  0  0  0  0  0  0  0  0  0  0  0
   -3.5724   -2.8875    0.0000 C   0  0  0  0  0  0  0  0  0  0  0  0
   -2.8579   -2.4750    0.0000 C   0  0  0  0  0  0  0  0  0  0  0  0
   -2.1434   -2.8875    0.0000 C   0  0  0  0  0  0  0  0  0  0  0  0
   -1.4289   -2.4750    0.0000 C   0  0  0  0  0  0  0  0  0  0  0  0
   -1.4289   -1.6500    0.0000 C   0  0  0  0  0  0  0  0  0  0  0  0
   -0.7145   -1.2375    0.0000 C   0  0  0  0  0  0  0  0  0  0  0  0
    0.0000   -1.6500    0.0000 C   0  0  0  0  0  0  0  0  0  0  0  0
    0.7145   -1.2375    0.0000 C   0  0  0  0  0  0  0  0  0  0  0  0
    0.7145   -0.4125    0.0000 C   0  0  0  0  0  0  0  0  0  0  0  0
    1.4289    0.0000    0.0000 C   0  0  0  0  0  0  0  0  0  0  0  0
    1.4289    0.8250    0.0000 C   0  0  0  0  0  0  0  0  0  0  0  0
    2.1434    1.2375    0.0000 O   0  0  0  0  0  0  0  0  0  0  0  0
    0.7145    1.2375    0.0000 O   0  0  0  0  0  0  0  0  0  0  0  0
    2.1434   -0.4125    0.0000 C   0  0  0  0  0  0  0  0  0  0  0  0
    2.8579    0.0000    0.0000 C   0  0  0  0  0  0  0  0  0  0  0  0
    3.5724   -0.4125    0.0000 C   0  0  0  0  0  0  0  0  0  0  0  0
    3.5724   -1.2375    0.0000 C   0  0  0  0  0  0  0  0  0  0  0  0
    2.8579   -1.6500    0.0000 C   0  0  0  0  0  0  0  0  0  0  0  0
    2.1434   -1.2375    0.0000 C   0  0  0  0  0  0  0  0  0  0  0  0
    1.4289   -1.6500    0.0000 N   0  0  0  0  0  0  0  0  0  0  0  0
    0.0000   -2.4750    0.0000 C   0  0  0  0  0  0  0  0  0  0  0  0
   -0.7145   -2.8875    0.0000 C   0  0  0  0  0  0  0  0  0  0  0  0
  1  2  1  0  0  0  0
  2  3  4  0  0  0  0
  3  4  4  0  0  0  0
  4  5  4  0  0  0  0
  5  6  4  0  0  0  0
  6  7  4  0  0  0  0
  2  7  4  0  0  0  0
  7  8  1  0  0  0  0
  8  9  4  0  0  0  0
  9 10  4  0  0  0  0
 10 11  4  0  0  0  0
 11 12  1  0  0  0  0
 12 13  4  0  0  0  0
 13 14  4  0  0  0  0
 14 15  1  0  0  0  0
 15 16  2  0  0  0  0
 15 17  1  0  0  0  0
 14 18  4  0  0  0  0
 18 19  4  0  0  0  0
 19 20  4  0  0  0  0
 20 21  4  0  0  0  0
 21 22  4  0  0  0  0
 22 23  4  0  0  0  0
 18 23  4  0  0  0  0
 23 24  4  0  0  0  0
 12 24  4  0  0  0  0
 11 25  4  0  0  0  0
 25 26  4  0  0  0  0
  8 26  4  0  0  0  0
M  END
> <IC50(uM)>
0.022

> <Outcome>
1.0

> <BindingDB ID>
51126184

> <BindingDB MonomerID>
50461871

> <BindingDB Ligand Name>
CHEMBL4226472

> <Curation/DataSource>
ChEMBL

> <Article DOI>
10.1021/acs.jmedchem.7b01862

> <PMID>
29727569

> <Patent Number>
?

> <Authors>
Madak, JT; Cuthbertson, CR; Miyata, Y; Tamura, S; Petrunak, EM; Stuckey, JA; Han, Y; He, M; Sun, D; Showalter, HD; Neamati, N

> <Link to Ligand in BindingDB>
http://www.bindingdb.org/bind/chemsearch/marvin/MolStructure.jsp?monomerid=50461871

> <Link to Ligand-Target Pair in BindingDB>
http://www.bindingdb.org/jsp/dbsearch/PrimarySearch_ki.jsp?energyterm=kJ/mole&tag=r21&monomerid=50461871&enzyme=Dihydroorotate+dehydrogenase&column=ki&startPg=0&Increment=50&submit=Search

> <PubChem CID>
145968108

> <PubChem SID>
433929136

$$$$

  Mrv2115 07222212352D          

 34 36  0  0  0  0            999 V2000
    0.7145   -3.7125    0.0000 C   0  0  0  0  0  0  0  0  0  0  0  0
    1.4289   -4.1250    0.0000 S   0  0  0  0  0  0  0  0  0  0  0  0
    1.4289   -4.9500    0.0000 C   0  0  0  0  0  0  0  0  0  0  0  0
    0.7615   -5.4349    0.0000 N   0  0  0  0  0  0  0  0  0  0  0  0
    1.0164   -6.2195    0.0000 N   0  0  0  0  0  0  0  0  0  0  0  0
    0.5315   -6.8870    0.0000 C   0  0  0  0  0  0  0  0  0  0  0  0
    0.8671   -7.6407    0.0000 C   0  0  0  0  0  0  0  0  0  0  0  0
    0.3822   -8.3081    0.0000 C   0  0  0  0  0  0  0  0  0  0  0  0
    0.7177   -9.0618    0.0000 O   0  0  0  0  0  0  0  0  0  0  0  0
    1.5382   -9.1480    0.0000 C   0  0  0  0  0  0  0  0  0  0  0  0
    2.0231   -8.4806    0.0000 C   0  0  0  0  0  0  0  0  0  0  0  0
    1.8738   -9.9017    0.0000 C   0  0  0  0  0  0  0  0  0  0  0  0
    1.1201  -10.2372    0.0000 F   0  0  0  0  0  0  0  0  0  0  0  0
    2.6274   -9.5661    0.0000 F   0  0  0  0  0  0  0  0  0  0  0  0
    2.2093  -10.6554    0.0000 F   0  0  0  0  0  0  0  0  0  0  0  0
   -0.4383   -8.2219    0.0000 C   0  0  0  0  0  0  0  0  0  0  0  0
   -0.9232   -8.8893    0.0000 C   0  0  0  0  0  0  0  0  0  0  0  0
   -1.7437   -8.8031    0.0000 O   0  0  0  0  0  0  0  0  0  0  0  0
   -0.5877   -9.6430    0.0000 N   0  0  0  0  0  0  0  0  0  0  0  0
   -1.0726  -10.3104    0.0000 C   0  0  0  0  0  0  0  0  0  0  0  0
   -0.7371  -11.0641    0.0000 C   0  0  0  0  0  0  0  0  0  0  0  0
    0.0834  -11.1503    0.0000 F   0  0  0  0  0  0  0  0  0  0  0  0
   -1.2220  -11.7315    0.0000 C   0  0  0  0  0  0  0  0  0  0  0  0
   -2.0425  -11.6453    0.0000 C   0  0  0  0  0  0  0  0  0  0  0  0
   -2.3780  -10.8916    0.0000 C   0  0  0  0  0  0  0  0  0  0  0  0
   -1.8931  -10.2242    0.0000 C   0  0  0  0  0  0  0  0  0  0  0  0
   -2.2287   -9.4705    0.0000 F   0  0  0  0  0  0  0  0  0  0  0  0
   -0.7739   -7.4682    0.0000 C   0  0  0  0  0  0  0  0  0  0  0  0
   -0.2890   -6.8007    0.0000 C   0  0  0  0  0  0  0  0  0  0  0  0
   -0.6245   -6.0471    0.0000 F   0  0  0  0  0  0  0  0  0  0  0  0
    1.8414   -6.2195    0.0000 C   0  0  0  0  0  0  0  0  0  0  0  0
    2.3264   -6.8870    0.0000 O   0  0  0  0  0  0  0  0  0  0  0  0
    2.0964   -5.4349    0.0000 N   0  0  0  0  0  0  0  0  0  0  0  0
    2.8810   -5.1800    0.0000 C   0  0  0  0  0  0  0  0  0  0  0  0
  1  2  1  0  0  0  0
  2  3  1  0  0  0  0
  3  4  4  0  0  0  0
  4  5  4  0  0  0  0
  5  6  1  0  0  0  0
  6  7  4  0  0  0  0
  7  8  4  0  0  0  0
  8  9  1  0  0  0  0
  9 10  1  0  0  0  0
 10 11  1  0  0  0  0
 10 12  1  0  0  0  0
 12 13  1  0  0  0  0
 12 14  1  0  0  0  0
 12 15  1  0  0  0  0
  8 16  4  0  0  0  0
 16 17  1  0  0  0  0
 17 18  2  0  0  0  0
 17 19  1  0  0  0  0
 19 20  1  0  0  0  0
 20 21  4  0  0  0  0
 21 22  1  0  0  0  0
 21 23  4  0  0  0  0
 23 24  4  0  0  0  0
 24 25  4  0  0  0  0
 25 26  4  0  0  0  0
 20 26  4  0  0  0  0
 26 27  1  0  0  0  0
 16 28  4  0  0  0  0
 28 29  4  0  0  0  0
  6 29  4  0  0  0  0
 29 30  1  0  0  0  0
  5 31  4  0  0  0  0
 31 32  2  0  0  0  0
 31 33  4  0  0  0  0
  3 33  4  0  0  0  0
 33 34  1  0  0  0  0
M  END
> <IC50(uM)>
0.06

> <Outcome>
1.0

> <BindingDB ID>
972557; 1098711

> <BindingDB MonomerID>
470431

> <BindingDB Ligand Name>
N-(2,6-difluorophenyl)-5-fluoro-4-[4-methyl-3-(methylsulfanyl)-5-oxo-4,5-dihydro-1H-1,2,4-triazol-1-yl]-2-{[(2S)-1,1,1-trifluoropropan-2-yl]oxy}benzamide::US10815215, Example 99; N-(2,6-difluorophenyl)-5-fluoro-4-[4-methyl-3-(methylsulfanyl)-5-oxo-4,5-dihydro-1H-1,2,4-triazol-1-yl]-2-{[(2S)-1,1,1-trifluoropropan-2-yl]oxy}benzamide::US10815215, Example 99::US11130745, Example 99

> <Curation/DataSource>
US Patent

> <Article DOI>
?

> <PMID>
?

> <Patent Number>
US10815215; US11130745

> <Authors>
Gradl, SN; Nguyen, D; Eis, K; Gunther, J; Stellfeld, T; Janzer, A; Christian, S; Muller, T; Sheikh, SE; Zhou, HJ; Zhao, C; Sykes, DB; Ferrara, SJ; Liu, K; Krober, M; Merz, C; Niehues, M; Schafer, M; Zimmermann, K; Nising, CF; Gradl, SN; Nguyen, D; Eis, K; Gunther, J; Stellfeld, T; Janzer, A; Christian, S; Muller, T; Sheikh, SE; Sykes, DB; Ferrara, SJ; Krober, M; Merz, C; Niehues, M; Schafer, M; Zimmermann, K; Nising, CF

> <Link to Ligand in BindingDB>
http://www.bindingdb.org/bind/chemsearch/marvin/MolStructure.jsp?monomerid=470431

> <Link to Ligand-Target Pair in BindingDB>
http://www.bindingdb.org/jsp/dbsearch/PrimarySearch_ki.jsp?energyterm=kJ/mole&tag=r21&monomerid=470431&enzyme=Dihydroorotate+dehydrogenase&column=ki&startPg=0&Increment=50&submit=Search

> <PubChem CID>
134470182

> <PubChem SID>
441609608

$$$$

  Mrv2115 07222212352D          

 26 29  0  0  0  0            999 V2000
    2.1434   -2.8875    0.0000 O   0  0  0  0  0  0  0  0  0  0  0  0
    1.4289   -2.4750    0.0000 C   0  0  0  0  0  0  0  0  0  0  0  0
    0.7145   -2.8875    0.0000 O   0  0  0  0  0  0  0  0  0  0  0  0
    1.4289   -1.6500    0.0000 C   0  0  0  0  0  0  0  0  0  0  0  0
    0.7145   -1.2375    0.0000 C   0  0  0  0  0  0  0  0  0  0  0  0
    0.7145   -0.4125    0.0000 C   0  0  0  0  0  0  0  0  0  0  0  0
    0.0000    0.0000    0.0000 C   0  0  0  0  0  0  0  0  0  0  0  0
   -0.7145   -0.4125    0.0000 C   0  0  0  0  0  0  0  0  0  0  0  0
   -1.4289    0.0000    0.0000 C   0  0  0  0  0  0  0  0  0  0  0  0
   -1.4289    0.8250    0.0000 C   0  0  0  0  0  0  0  0  0  0  0  0
   -2.1434    1.2375    0.0000 C   0  0  0  0  0  0  0  0  0  0  0  0
   -2.8579    0.8250    0.0000 C   0  0  0  0  0  0  0  0  0  0  0  0
   -3.5724    1.2375    0.0000 C   0  0  0  0  0  0  0  0  0  0  0  0
   -3.5724    2.0625    0.0000 C   0  0  0  0  0  0  0  0  0  0  0  0
   -2.8579    2.4750    0.0000 N   0  0  0  0  0  0  0  0  0  0  0  0
   -2.1434    2.0625    0.0000 C   0  0  0  0  0  0  0  0  0  0  0  0
   -1.4289    2.4750    0.0000 F   0  0  0  0  0  0  0  0  0  0  0  0
   -0.7145    1.2375    0.0000 C   0  0  0  0  0  0  0  0  0  0  0  0
    0.0000    0.8250    0.0000 C   0  0  0  0  0  0  0  0  0  0  0  0
    1.4289    0.0000    0.0000 N   0  0  0  0  0  0  0  0  0  0  0  0
    2.1434   -0.4125    0.0000 C   0  0  0  0  0  0  0  0  0  0  0  0
    2.8579    0.0000    0.0000 C   0  0  0  0  0  0  0  0  0  0  0  0
    3.5724   -0.4125    0.0000 C   0  0  0  0  0  0  0  0  0  0  0  0
    3.5724   -1.2375    0.0000 C   0  0  0  0  0  0  0  0  0  0  0  0
    2.8579   -1.6500    0.0000 C   0  0  0  0  0  0  0  0  0  0  0  0
    2.1434   -1.2375    0.0000 C   0  0  0  0  0  0  0  0  0  0  0  0
  1  2  2  0  0  0  0
  2  3  1  0  0  0  0
  2  4  1  0  0  0  0
  4  5  4  0  0  0  0
  5  6  4  0  0  0  0
  6  7  1  0  0  0  0
  7  8  4  0  0  0  0
  8  9  4  0  0  0  0
  9 10  4  0  0  0  0
 10 11  1  0  0  0  0
 11 12  4  0  0  0  0
 12 13  4  0  0  0  0
 13 14  4  0  0  0  0
 14 15  4  0  0  0  0
 15 16  4  0  0  0  0
 11 16  4  0  0  0  0
 16 17  1  0  0  0  0
 10 18  4  0  0  0  0
 18 19  4  0  0  0  0
  7 19  4  0  0  0  0
  6 20  4  0  0  0  0
 20 21  4  0  0  0  0
 21 22  4  0  0  0  0
 22 23  4  0  0  0  0
 23 24  4  0  0  0  0
 24 25  4  0  0  0  0
 25 26  4  0  0  0  0
  4 26  4  0  0  0  0
 21 26  4  0  0  0  0
M  END
> <IC50(uM)>
1.42

> <Outcome>
0.0

> <BindingDB ID>
51126201

> <BindingDB MonomerID>
50461887

> <BindingDB Ligand Name>
CHEMBL4225552

> <Curation/DataSource>
ChEMBL

> <Article DOI>
10.1021/acs.jmedchem.7b01862

> <PMID>
29727569

> <Patent Number>
?

> <Authors>
Madak, JT; Cuthbertson, CR; Miyata, Y; Tamura, S; Petrunak, EM; Stuckey, JA; Han, Y; He, M; Sun, D; Showalter, HD; Neamati, N

> <Link to Ligand in BindingDB>
http://www.bindingdb.org/bind/chemsearch/marvin/MolStructure.jsp?monomerid=50461887

> <Link to Ligand-Target Pair in BindingDB>
http://www.bindingdb.org/jsp/dbsearch/PrimarySearch_ki.jsp?energyterm=kJ/mole&tag=r21&monomerid=50461887&enzyme=Dihydroorotate+dehydrogenase&column=ki&startPg=0&Increment=50&submit=Search

> <PubChem CID>
145969676

> <PubChem SID>
433929152

$$$$

  Mrv2115 07222212352D          

 37 40  0  0  0  0            999 V2000
   -1.8659    1.4455    0.0000 C   0  0  0  0  0  0  0  0  0  0  0  0
   -2.6909    1.4455    0.0000 C   0  0  0  0  0  0  0  0  0  0  0  0
   -3.1034    0.7310    0.0000 O   0  0  0  0  0  0  0  0  0  0  0  0
   -2.6909    0.0165    0.0000 C   0  0  0  0  0  0  0  0  0  0  0  0
   -1.8659    0.0165    0.0000 C   0  0  0  0  0  0  0  0  0  0  0  0
   -1.4534   -0.6979    0.0000 C   0  0  0  0  0  0  0  0  0  0  0  0
   -0.6284   -0.6979    0.0000 N   0  0  0  0  0  0  0  0  0  0  0  0
   -0.1435   -1.3654    0.0000 N   0  0  0  0  0  0  0  0  0  0  0  0
    0.6411   -1.1104    0.0000 C   0  0  0  0  0  0  0  0  0  0  0  0
    0.6411   -0.2854    0.0000 N   0  0  0  0  0  0  0  0  0  0  0  0
   -0.1435   -0.0305    0.0000 C   0  0  0  0  0  0  0  0  0  0  0  0
   -0.3984    0.7541    0.0000 O   0  0  0  0  0  0  0  0  0  0  0  0
    1.3556    0.1271    0.0000 C   0  0  0  0  0  0  0  0  0  0  0  0
    2.0701   -0.2854    0.0000 C   0  0  0  0  0  0  0  0  0  0  0  0
    2.0701   -1.1104    0.0000 C   0  0  0  0  0  0  0  0  0  0  0  0
    1.3556   -1.5229    0.0000 C   0  0  0  0  0  0  0  0  0  0  0  0
   -1.8659   -1.4124    0.0000 C   0  0  0  0  0  0  0  0  0  0  0  0
   -1.4534   -2.1269    0.0000 F   0  0  0  0  0  0  0  0  0  0  0  0
   -2.6909   -1.4124    0.0000 C   0  0  0  0  0  0  0  0  0  0  0  0
   -3.1034   -0.6979    0.0000 C   0  0  0  0  0  0  0  0  0  0  0  0
   -3.9284   -0.6979    0.0000 C   0  0  0  0  0  0  0  0  0  0  0  0
   -4.3409    0.0165    0.0000 O   0  0  0  0  0  0  0  0  0  0  0  0
   -4.3409   -1.4124    0.0000 N   0  0  0  0  0  0  0  0  0  0  0  0
   -5.1659   -1.4124    0.0000 C   0  0  0  0  0  0  0  0  0  0  0  0
   -5.5784   -0.6979    0.0000 C   0  0  0  0  0  0  0  0  0  0  0  0
   -6.4034   -0.6979    0.0000 C   0  0  0  0  0  0  0  0  0  0  0  0
   -6.8159   -1.4124    0.0000 C   0  0  0  0  0  0  0  0  0  0  0  0
   -6.4034   -2.1269    0.0000 C   0  0  0  0  0  0  0  0  0  0  0  0
   -5.5784   -2.1269    0.0000 C   0  0  0  0  0  0  0  0  0  0  0  0
   -5.1659   -2.8414    0.0000 C   0  0  0  0  0  0  0  0  0  0  0  0
   -4.7534   -3.5558    0.0000 F   0  0  0  0  0  0  0  0  0  0  0  0
   -5.8804   -3.2539    0.0000 F   0  0  0  0  0  0  0  0  0  0  0  0
   -4.4515   -2.4289    0.0000 F   0  0  0  0  0  0  0  0  0  0  0  0
   -3.1034    2.1599    0.0000 C   0  0  0  0  0  0  0  0  0  0  0  0
   -2.3890    2.5724    0.0000 F   0  0  0  0  0  0  0  0  0  0  0  0
   -3.8179    1.7474    0.0000 F   0  0  0  0  0  0  0  0  0  0  0  0
   -3.5159    2.8744    0.0000 F   0  0  0  0  0  0  0  0  0  0  0  0
  1  2  1  0  0  0  0
  2  3  1  0  0  0  0
  3  4  1  0  0  0  0
  4  5  4  0  0  0  0
  5  6  4  0  0  0  0
  6  7  1  0  0  0  0
  7  8  4  0  0  0  0
  8  9  4  0  0  0  0
  9 10  4  0  0  0  0
 10 11  4  0  0  0  0
  7 11  4  0  0  0  0
 11 12  2  0  0  0  0
 10 13  1  0  0  0  0
 13 14  1  0  0  0  0
 14 15  1  0  0  0  0
 15 16  1  0  0  0  0
  9 16  1  0  0  0  0
  6 17  4  0  0  0  0
 17 18  1  0  0  0  0
 17 19  4  0  0  0  0
 19 20  4  0  0  0  0
  4 20  4  0  0  0  0
 20 21  1  0  0  0  0
 21 22  2  0  0  0  0
 21 23  1  0  0  0  0
 23 24  1  0  0  0  0
 24 25  4  0  0  0  0
 25 26  4  0  0  0  0
 26 27  4  0  0  0  0
 27 28  4  0  0  0  0
 28 29  4  0  0  0  0
 24 29  4  0  0  0  0
 29 30  1  0  0  0  0
 30 31  1  0  0  0  0
 30 32  1  0  0  0  0
 30 33  1  0  0  0  0
  2 34  1  0  0  0  0
 34 35  1  0  0  0  0
 34 36  1  0  0  0  0
 34 37  1  0  0  0  0
M  END
> <IC50(uM)>
0.0095

> <Outcome>
1.0

> <BindingDB ID>
1020460

> <BindingDB MonomerID>
490408

> <BindingDB Ligand Name>
5-fluoro-4-(3-oxo-5,6,7,8-tetrahydro[1,2,4]triazolo[4,3-a]pyridin-2(3H)-yl)-N-[2-(trifluoromethyl)phenyl]-2-{[(2S)-1,1,1-trifluoropropan-2-yl]oxy}benzamide::US10968216, Example 76

> <Curation/DataSource>
US Patent

> <Article DOI>
?

> <PMID>
?

> <Patent Number>
US10968216

> <Authors>
Gradl, SN; Nguyen, D; Eis, K; Gunther, J; Stellfeld, T; Janzer, A; Christian, S; Mueller, T; Sheikh, SE; Zhou, HJ; Zhao, C; Sykes, DB; Ferrara, SJ; Liu, K; Herbert, SA; Merz, C; Niehues, M; Nising, CF; Schafer, M; Zimmermann, K; Knablein, J; Thede, K; Faupel, T

> <Link to Ligand in BindingDB>
http://www.bindingdb.org/bind/chemsearch/marvin/MolStructure.jsp?monomerid=490408

> <Link to Ligand-Target Pair in BindingDB>
http://www.bindingdb.org/jsp/dbsearch/PrimarySearch_ki.jsp?energyterm=kJ/mole&tag=r21&monomerid=490408&enzyme=Dihydroorotate+dehydrogenase&column=ki&startPg=0&Increment=50&submit=Search

> <PubChem CID>
134474495

> <PubChem SID>
447117135

$$$$

  Mrv2115 07222212352D          

 21 23  0  0  0  0            999 V2000
    1.4289   -2.4750    0.0000 O   0  0  0  0  0  0  0  0  0  0  0  0
    1.4289   -1.6500    0.0000 C   0  0  0  0  0  0  0  0  0  0  0  0
    0.7145   -1.2375    0.0000 C   0  0  0  0  0  0  0  0  0  0  0  0
    0.0000   -1.6500    0.0000 O   0  0  0  0  0  0  0  0  0  0  0  0
    0.7145   -0.4125    0.0000 C   0  0  0  0  0  0  0  0  0  0  0  0
    0.0000    0.0000    0.0000 N   0  0  0  0  0  0  0  0  0  0  0  0
    0.0000    0.8250    0.0000 C   0  0  0  0  0  0  0  0  0  0  0  0
    0.7145    1.2375    0.0000 C   0  0  0  0  0  0  0  0  0  0  0  0
    0.7145    2.0625    0.0000 C   0  0  0  0  0  0  0  0  0  0  0  0
    0.0000    2.4750    0.0000 C   0  0  0  0  0  0  0  0  0  0  0  0
   -0.7145    2.0625    0.0000 C   0  0  0  0  0  0  0  0  0  0  0  0
   -0.7145    1.2375    0.0000 C   0  0  0  0  0  0  0  0  0  0  0  0
   -1.4289    0.8250    0.0000 Cl  0  0  0  0  0  0  0  0  0  0  0  0
    1.4289    0.0000    0.0000 C   0  0  0  0  0  0  0  0  0  0  0  0
    1.4289    0.8250    0.0000 O   0  0  0  0  0  0  0  0  0  0  0  0
    2.1434   -0.4125    0.0000 C   0  0  0  0  0  0  0  0  0  0  0  0
    2.8579    0.0000    0.0000 C   0  0  0  0  0  0  0  0  0  0  0  0
    3.5724   -0.4125    0.0000 C   0  0  0  0  0  0  0  0  0  0  0  0
    3.5724   -1.2375    0.0000 C   0  0  0  0  0  0  0  0  0  0  0  0
    2.8579   -1.6500    0.0000 C   0  0  0  0  0  0  0  0  0  0  0  0
    2.1434   -1.2375    0.0000 C   0  0  0  0  0  0  0  0  0  0  0  0
  1  2  2  0  0  0  0
  2  3  1  0  0  0  0
  3  4  1  0  0  0  0
  3  5  2  0  0  0  0
  5  6  1  0  0  0  0
  6  7  1  0  0  0  0
  7  8  4  0  0  0  0
  8  9  4  0  0  0  0
  9 10  4  0  0  0  0
 10 11  4  0  0  0  0
 11 12  4  0  0  0  0
  7 12  4  0  0  0  0
 12 13  1  0  0  0  0
  5 14  1  0  0  0  0
 14 15  2  0  0  0  0
 14 16  1  0  0  0  0
 16 17  4  0  0  0  0
 17 18  4  0  0  0  0
 18 19  4  0  0  0  0
 19 20  4  0  0  0  0
 20 21  4  0  0  0  0
 16 21  4  0  0  0  0
  2 21  1  0  0  0  0
M  END
> <IC50(uM)>
0.808

> <Outcome>
1.0

> <BindingDB ID>
51282827

> <BindingDB MonomerID>
50523213

> <BindingDB Ligand Name>
CHEMBL4452960

> <Curation/DataSource>
ChEMBL

> <Article DOI>
10.1016/j.ejmech.2019.02.018

> <PMID>
30776695

> <Patent Number>
?

> <Authors>
Calil, FA; David, JS; Chiappetta, ERC; Fumagalli, F; Mello, RB; Leite, FHA; Castilho, MS; Emery, FS; Nonato, MC

> <Link to Ligand in BindingDB>
http://www.bindingdb.org/bind/chemsearch/marvin/MolStructure.jsp?monomerid=50523213

> <Link to Ligand-Target Pair in BindingDB>
http://www.bindingdb.org/jsp/dbsearch/PrimarySearch_ki.jsp?energyterm=kJ/mole&tag=r21&monomerid=50523213&enzyme=Dihydroorotate+dehydrogenase&column=ki&startPg=0&Increment=50&submit=Search

> <PubChem CID>
155522616

> <PubChem SID>
440731795

$$$$

  Mrv2115 07222212352D          

 34 36  0  0  0  0            999 V2000
    2.1434   -3.7125    0.0000 C   0  0  0  0  0  0  0  0  0  0  0  0
    2.8579   -4.1250    0.0000 C   0  0  0  0  0  0  0  0  0  0  0  0
    3.5724   -3.7125    0.0000 C   0  0  0  0  0  0  0  0  0  0  0  0
    4.2868   -4.1250    0.0000 C   0  0  0  0  0  0  0  0  0  0  0  0
    4.2868   -4.9500    0.0000 C   0  0  0  0  0  0  0  0  0  0  0  0
    5.0013   -3.7125    0.0000 O   0  0  0  0  0  0  0  0  0  0  0  0
    5.0013   -2.8875    0.0000 C   0  0  0  0  0  0  0  0  0  0  0  0
    4.2868   -2.4750    0.0000 C   0  0  0  0  0  0  0  0  0  0  0  0
    4.2868   -1.6500    0.0000 C   0  0  0  0  0  0  0  0  0  0  0  0
    3.5724   -1.2375    0.0000 N   0  0  0  0  0  0  0  0  0  0  0  0
    2.8187   -1.5731    0.0000 N   0  0  0  0  0  0  0  0  0  0  0  0
    2.2666   -0.9600    0.0000 C   0  0  0  0  0  0  0  0  0  0  0  0
    1.4462   -1.0462    0.0000 C   0  0  0  0  0  0  0  0  0  0  0  0
    1.1106   -1.7999    0.0000 C   0  0  0  0  0  0  0  0  0  0  0  0
    2.6791   -0.2455    0.0000 N   0  0  0  0  0  0  0  0  0  0  0  0
    2.3436    0.5082    0.0000 C   0  0  0  0  0  0  0  0  0  0  0  0
    3.4861   -0.4170    0.0000 C   0  0  0  0  0  0  0  0  0  0  0  0
    4.0992    0.1350    0.0000 O   0  0  0  0  0  0  0  0  0  0  0  0
    5.0013   -1.2375    0.0000 C   0  0  0  0  0  0  0  0  0  0  0  0
    5.0013   -0.4125    0.0000 F   0  0  0  0  0  0  0  0  0  0  0  0
    5.7158   -1.6500    0.0000 C   0  0  0  0  0  0  0  0  0  0  0  0
    5.7158   -2.4750    0.0000 C   0  0  0  0  0  0  0  0  0  0  0  0
    6.4302   -2.8875    0.0000 C   0  0  0  0  0  0  0  0  0  0  0  0
    6.4302   -3.7125    0.0000 O   0  0  0  0  0  0  0  0  0  0  0  0
    7.1447   -2.4750    0.0000 N   0  0  0  0  0  0  0  0  0  0  0  0
    7.8592   -2.8875    0.0000 C   0  0  0  0  0  0  0  0  0  0  0  0
    8.5737   -2.4750    0.0000 C   0  0  0  0  0  0  0  0  0  0  0  0
    9.2881   -2.8875    0.0000 C   0  0  0  0  0  0  0  0  0  0  0  0
    9.2881   -3.7125    0.0000 C   0  0  0  0  0  0  0  0  0  0  0  0
   10.0026   -4.1250    0.0000 C   0  0  0  0  0  0  0  0  0  0  0  0
   10.7171   -3.7125    0.0000 C   0  0  0  0  0  0  0  0  0  0  0  0
   10.0026   -4.9500    0.0000 C   0  0  0  0  0  0  0  0  0  0  0  0
    8.5737   -4.1250    0.0000 C   0  0  0  0  0  0  0  0  0  0  0  0
    7.8592   -3.7125    0.0000 C   0  0  0  0  0  0  0  0  0  0  0  0
  1  2  1  0  0  0  0
  2  3  1  0  0  0  0
  3  4  1  0  0  0  0
  4  5  1  0  0  0  0
  4  6  1  0  0  0  0
  6  7  1  0  0  0  0
  7  8  4  0  0  0  0
  8  9  4  0  0  0  0
  9 10  1  0  0  0  0
 10 11  4  0  0  0  0
 11 12  4  0  0  0  0
 12 13  1  0  0  0  0
 13 14  1  0  0  0  0
 12 15  4  0  0  0  0
 15 16  1  0  0  0  0
 15 17  4  0  0  0  0
 10 17  4  0  0  0  0
 17 18  2  0  0  0  0
  9 19  4  0  0  0  0
 19 20  1  0  0  0  0
 19 21  4  0  0  0  0
 21 22  4  0  0  0  0
  7 22  4  0  0  0  0
 22 23  1  0  0  0  0
 23 24  2  0  0  0  0
 23 25  1  0  0  0  0
 25 26  1  0  0  0  0
 26 27  4  0  0  0  0
 27 28  4  0  0  0  0
 28 29  4  0  0  0  0
 29 30  1  0  0  0  0
 30 31  1  0  0  0  0
 30 32  1  0  0  0  0
 29 33  4  0  0  0  0
 33 34  4  0  0  0  0
 26 34  4  0  0  0  0
M  END
> <IC50(uM)>
0.33449999999999996

> <Outcome>
1.0

> <BindingDB ID>
972503; 1098657; 1098656; 972502

> <BindingDB MonomerID>
470381

> <BindingDB Ligand Name>
4-(3-ethyl-4-methyl-5-oxo-4,5-dihydro-1H-1,2,4-triazol-1-yl)-5-fluoro-2-[(2S)-pentan-2-yloxy]-N-[4-(propan-2-yl)phenyl]benzamide::US10815215, Example 40; 4-(3-ethyl-4-methyl-5-oxo-4,5-dihydro-1H-1,2,4-triazol-1-yl)-5-fluoro-2-[(2S)-pentan-2-yloxy]-N-[4-(propan-2-yl)phenyl]benzamide::US10815215, Example 40::US11130745, Example 40

> <Curation/DataSource>
US Patent

> <Article DOI>
?

> <PMID>
?

> <Patent Number>
US10815215; US11130745

> <Authors>
Gradl, SN; Nguyen, D; Eis, K; Gunther, J; Stellfeld, T; Janzer, A; Christian, S; Muller, T; Sheikh, SE; Zhou, HJ; Zhao, C; Sykes, DB; Ferrara, SJ; Liu, K; Krober, M; Merz, C; Niehues, M; Schafer, M; Zimmermann, K; Nising, CF; Gradl, SN; Nguyen, D; Eis, K; Gunther, J; Stellfeld, T; Janzer, A; Christian, S; Muller, T; Sheikh, SE; Sykes, DB; Ferrara, SJ; Krober, M; Merz, C; Niehues, M; Schafer, M; Zimmermann, K; Nising, CF

> <Link to Ligand in BindingDB>
http://www.bindingdb.org/bind/chemsearch/marvin/MolStructure.jsp?monomerid=470381

> <Link to Ligand-Target Pair in BindingDB>
http://www.bindingdb.org/jsp/dbsearch/PrimarySearch_ki.jsp?energyterm=kJ/mole&tag=r21&monomerid=470381&enzyme=Dihydroorotate+dehydrogenase&column=ki&startPg=0&Increment=50&submit=Search

> <PubChem CID>
134470032

> <PubChem SID>
441609558

$$$$

  Mrv2115 07222212352D          

 32 34  0  0  0  0            999 V2000
   -2.1434   -1.2375    0.0000 C   0  0  0  0  0  0  0  0  0  0  0  0
   -1.4289   -1.6500    0.0000 C   0  0  0  0  0  0  0  0  0  0  0  0
   -1.4289   -2.4750    0.0000 C   0  0  0  0  0  0  0  0  0  0  0  0
   -0.7145   -1.2375    0.0000 C   0  0  0  0  0  0  0  0  0  0  0  0
    0.0000   -1.6500    0.0000 C   0  0  0  0  0  0  0  0  0  0  0  0
    0.0000   -2.4750    0.0000 C   0  0  0  0  0  0  0  0  0  0  0  0
    0.7145   -1.2375    0.0000 O   0  0  0  0  0  0  0  0  0  0  0  0
    0.7145   -0.4125    0.0000 C   0  0  0  0  0  0  0  0  0  0  0  0
    0.0000    0.0000    0.0000 C   0  0  0  0  0  0  0  0  0  0  0  0
    0.0000    0.8250    0.0000 C   0  0  0  0  0  0  0  0  0  0  0  0
   -0.7145    1.2375    0.0000 N   0  0  0  0  0  0  0  0  0  0  0  0
   -1.4681    0.9019    0.0000 N   0  0  0  0  0  0  0  0  0  0  0  0
   -2.0202    1.5150    0.0000 C   0  0  0  0  0  0  0  0  0  0  0  0
   -2.8407    1.4288    0.0000 C   0  0  0  0  0  0  0  0  0  0  0  0
   -3.3256    2.0962    0.0000 C   0  0  0  0  0  0  0  0  0  0  0  0
   -3.1762    0.6751    0.0000 C   0  0  0  0  0  0  0  0  0  0  0  0
   -1.6077    2.2295    0.0000 N   0  0  0  0  0  0  0  0  0  0  0  0
   -1.9432    2.9832    0.0000 C   0  0  0  0  0  0  0  0  0  0  0  0
   -0.8007    2.0580    0.0000 C   0  0  0  0  0  0  0  0  0  0  0  0
   -0.1876    2.6100    0.0000 O   0  0  0  0  0  0  0  0  0  0  0  0
    0.7145    1.2375    0.0000 C   0  0  0  0  0  0  0  0  0  0  0  0
    0.7145    2.0625    0.0000 F   0  0  0  0  0  0  0  0  0  0  0  0
    1.4289    0.8250    0.0000 C   0  0  0  0  0  0  0  0  0  0  0  0
    1.4289    0.0000    0.0000 C   0  0  0  0  0  0  0  0  0  0  0  0
    2.1434   -0.4125    0.0000 C   0  0  0  0  0  0  0  0  0  0  0  0
    2.1434   -1.2375    0.0000 O   0  0  0  0  0  0  0  0  0  0  0  0
    2.8579    0.0000    0.0000 N   0  0  0  0  0  0  0  0  0  0  0  0
    2.8579    0.8250    0.0000 C   0  0  0  0  0  0  0  0  0  0  0  0
    2.1904    1.3099    0.0000 N   0  0  0  0  0  0  0  0  0  0  0  0
    2.4454    2.0945    0.0000 C   0  0  0  0  0  0  0  0  0  0  0  0
    3.2704    2.0945    0.0000 C   0  0  0  0  0  0  0  0  0  0  0  0
    3.5253    1.3099    0.0000 O   0  0  0  0  0  0  0  0  0  0  0  0
  1  2  1  0  0  0  0
  2  3  1  0  0  0  0
  2  4  1  0  0  0  0
  4  5  1  0  0  0  0
  5  6  1  0  0  0  0
  5  7  1  0  0  0  0
  7  8  1  0  0  0  0
  8  9  4  0  0  0  0
  9 10  4  0  0  0  0
 10 11  1  0  0  0  0
 11 12  4  0  0  0  0
 12 13  4  0  0  0  0
 13 14  1  0  0  0  0
 14 15  1  0  0  0  0
 14 16  1  0  0  0  0
 13 17  4  0  0  0  0
 17 18  1  0  0  0  0
 17 19  4  0  0  0  0
 11 19  4  0  0  0  0
 19 20  2  0  0  0  0
 10 21  4  0  0  0  0
 21 22  1  0  0  0  0
 21 23  4  0  0  0  0
 23 24  4  0  0  0  0
  8 24  4  0  0  0  0
 24 25  1  0  0  0  0
 25 26  2  0  0  0  0
 25 27  1  0  0  0  0
 27 28  1  0  0  0  0
 28 29  4  0  0  0  0
 29 30  4  0  0  0  0
 30 31  4  0  0  0  0
 31 32  4  0  0  0  0
 28 32  4  0  0  0  0
M  END
> <IC50(uM)>
20.0

> <Outcome>
0.0

> <BindingDB ID>
1098771; 972617

> <BindingDB MonomerID>
470503

> <BindingDB Ligand Name>
5-fluoro-4-[4-methyl-5-oxo-3-(propan-2-yl)-4,5-dihydro-1H-1,2,4-triazol-1-yl]-2-{[(2S)-4-methylpentan-2-yl]oxy}-N-(1,3-oxazol-2-yl)benzamide::US10815215, Example 155::US11130745, Example 155; 5-fluoro-4-[4-methyl-5-oxo-3-(propan-2-yl)-4,5-dihydro-1H-1,2,4-triazol-1-yl]-2-{[(2S)-4-methylpentan-2-yl]oxy}-N-(1,3-oxazol-2-yl)benzamide::US10815215, Example 155

> <Curation/DataSource>
US Patent

> <Article DOI>
?

> <PMID>
?

> <Patent Number>
US11130745; US10815215

> <Authors>
Gradl, SN; Nguyen, D; Eis, K; Gunther, J; Stellfeld, T; Janzer, A; Christian, S; Muller, T; Sheikh, SE; Sykes, DB; Ferrara, SJ; Krober, M; Merz, C; Niehues, M; Schafer, M; Zimmermann, K; Nising, CF; Gradl, SN; Nguyen, D; Eis, K; Gunther, J; Stellfeld, T; Janzer, A; Christian, S; Muller, T; Sheikh, SE; Zhou, HJ; Zhao, C; Sykes, DB; Ferrara, SJ; Liu, K; Krober, M; Merz, C; Niehues, M; Schafer, M; Zimmermann, K; Nising, CF

> <Link to Ligand in BindingDB>
http://www.bindingdb.org/bind/chemsearch/marvin/MolStructure.jsp?monomerid=470503

> <Link to Ligand-Target Pair in BindingDB>
http://www.bindingdb.org/jsp/dbsearch/PrimarySearch_ki.jsp?energyterm=kJ/mole&tag=r21&monomerid=470503&enzyme=Dihydroorotate+dehydrogenase&column=ki&startPg=0&Increment=50&submit=Search

> <PubChem CID>
134470408

> <PubChem SID>
441609680

$$$$

  Mrv2115 07222212352D          

 26 29  0  0  0  0            999 V2000
    0.0000   -1.6500    0.0000 C   0  0  0  0  0  0  0  0  0  0  0  0
    0.7145   -1.2375    0.0000 C   0  0  0  0  0  0  0  0  0  0  0  0
    0.7145   -0.4125    0.0000 C   0  0  0  0  0  0  0  0  0  0  0  0
    0.0000    0.0000    0.0000 C   0  0  0  0  0  0  0  0  0  0  0  0
   -0.7145   -0.4125    0.0000 C   0  0  0  0  0  0  0  0  0  0  0  0
   -1.4289    0.0000    0.0000 C   0  0  0  0  0  0  0  0  0  0  0  0
   -1.4289    0.8250    0.0000 C   0  0  0  0  0  0  0  0  0  0  0  0
   -2.1434    1.2375    0.0000 C   0  0  0  0  0  0  0  0  0  0  0  0
   -2.8579    0.8250    0.0000 C   0  0  0  0  0  0  0  0  0  0  0  0
   -3.5724    1.2375    0.0000 C   0  0  0  0  0  0  0  0  0  0  0  0
   -3.5724    2.0625    0.0000 C   0  0  0  0  0  0  0  0  0  0  0  0
   -2.8579    2.4750    0.0000 C   0  0  0  0  0  0  0  0  0  0  0  0
   -2.1434    2.0625    0.0000 C   0  0  0  0  0  0  0  0  0  0  0  0
   -0.7145    1.2375    0.0000 C   0  0  0  0  0  0  0  0  0  0  0  0
    0.0000    0.8250    0.0000 C   0  0  0  0  0  0  0  0  0  0  0  0
    1.4289    0.0000    0.0000 N   0  0  0  0  0  0  0  0  0  0  0  0
    2.1434   -0.4125    0.0000 C   0  0  0  0  0  0  0  0  0  0  0  0
    2.8579    0.0000    0.0000 C   0  0  0  0  0  0  0  0  0  0  0  0
    3.5724   -0.4125    0.0000 N   0  0  0  0  0  0  0  0  0  0  0  0
    3.5724   -1.2375    0.0000 C   0  0  0  0  0  0  0  0  0  0  0  0
    2.8579   -1.6500    0.0000 C   0  0  0  0  0  0  0  0  0  0  0  0
    2.1434   -1.2375    0.0000 C   0  0  0  0  0  0  0  0  0  0  0  0
    1.4289   -1.6500    0.0000 C   0  0  0  0  0  0  0  0  0  0  0  0
    1.4289   -2.4750    0.0000 C   0  0  0  0  0  0  0  0  0  0  0  0
    0.7145   -2.8875    0.0000 O   0  0  0  0  0  0  0  0  0  0  0  0
    2.1434   -2.8875    0.0000 O   0  0  0  0  0  0  0  0  0  0  0  0
  1  2  1  0  0  0  0
  2  3  4  0  0  0  0
  3  4  1  0  0  0  0
  4  5  4  0  0  0  0
  5  6  4  0  0  0  0
  6  7  4  0  0  0  0
  7  8  1  0  0  0  0
  8  9  4  0  0  0  0
  9 10  4  0  0  0  0
 10 11  4  0  0  0  0
 11 12  4  0  0  0  0
 12 13  4  0  0  0  0
  8 13  4  0  0  0  0
  7 14  4  0  0  0  0
 14 15  4  0  0  0  0
  4 15  4  0  0  0  0
  3 16  4  0  0  0  0
 16 17  4  0  0  0  0
 17 18  4  0  0  0  0
 18 19  4  0  0  0  0
 19 20  4  0  0  0  0
 20 21  4  0  0  0  0
 21 22  4  0  0  0  0
 17 22  4  0  0  0  0
 22 23  4  0  0  0  0
  2 23  4  0  0  0  0
 23 24  1  0  0  0  0
 24 25  2  0  0  0  0
 24 26  1  0  0  0  0
M  END
> <IC50(uM)>
0.028

> <Outcome>
1.0

> <BindingDB ID>
51126211

> <BindingDB MonomerID>
50461895

> <BindingDB Ligand Name>
CHEMBL4227722

> <Curation/DataSource>
ChEMBL

> <Article DOI>
10.1021/acs.jmedchem.7b01862

> <PMID>
29727569

> <Patent Number>
?

> <Authors>
Madak, JT; Cuthbertson, CR; Miyata, Y; Tamura, S; Petrunak, EM; Stuckey, JA; Han, Y; He, M; Sun, D; Showalter, HD; Neamati, N

> <Link to Ligand in BindingDB>
http://www.bindingdb.org/bind/chemsearch/marvin/MolStructure.jsp?monomerid=50461895

> <Link to Ligand-Target Pair in BindingDB>
http://www.bindingdb.org/jsp/dbsearch/PrimarySearch_ki.jsp?energyterm=kJ/mole&tag=r21&monomerid=50461895&enzyme=Dihydroorotate+dehydrogenase&column=ki&startPg=0&Increment=50&submit=Search

> <PubChem CID>
133107895

> <PubChem SID>
433929160

$$$$

  Mrv2115 07222212352D          

 30 33  0  0  0  0            999 V2000
    4.0668    2.3479    0.0000 C   0  0  0  0  0  0  0  0  0  0  0  0
    3.3523    1.9354    0.0000 C   0  0  0  0  0  0  0  0  0  0  0  0
    3.3523    1.1104    0.0000 C   0  0  0  0  0  0  0  0  0  0  0  0
    2.6378    0.6979    0.0000 C   0  0  0  0  0  0  0  0  0  0  0  0
    2.6378   -0.1271    0.0000 C   0  0  0  0  0  0  0  0  0  0  0  0
    1.9233   -0.5396    0.0000 O   0  0  0  0  0  0  0  0  0  0  0  0
    3.3523   -0.5396    0.0000 O   0  0  0  0  0  0  0  0  0  0  0  0
    1.9233    1.1104    0.0000 C   0  0  0  0  0  0  0  0  0  0  0  0
    1.1387    0.8555    0.0000 N   0  0  0  0  0  0  0  0  0  0  0  0
    0.6538    1.5229    0.0000 C   0  0  0  0  0  0  0  0  0  0  0  0
   -0.1712    1.5229    0.0000 C   0  0  0  0  0  0  0  0  0  0  0  0
   -0.5837    0.8085    0.0000 C   0  0  0  0  0  0  0  0  0  0  0  0
   -0.1712    0.0940    0.0000 F   0  0  0  0  0  0  0  0  0  0  0  0
   -1.4087    0.8085    0.0000 C   0  0  0  0  0  0  0  0  0  0  0  0
   -1.8212    0.0940    0.0000 F   0  0  0  0  0  0  0  0  0  0  0  0
   -1.8212    1.5229    0.0000 C   0  0  0  0  0  0  0  0  0  0  0  0
   -2.6462    1.5229    0.0000 C   0  0  0  0  0  0  0  0  0  0  0  0
   -3.0587    0.8085    0.0000 C   0  0  0  0  0  0  0  0  0  0  0  0
   -3.8837    0.8085    0.0000 C   0  0  0  0  0  0  0  0  0  0  0  0
   -4.2962    1.5229    0.0000 C   0  0  0  0  0  0  0  0  0  0  0  0
   -3.8837    2.2374    0.0000 C   0  0  0  0  0  0  0  0  0  0  0  0
   -3.0587    2.2374    0.0000 C   0  0  0  0  0  0  0  0  0  0  0  0
   -1.4087    2.2374    0.0000 C   0  0  0  0  0  0  0  0  0  0  0  0
   -1.8212    2.9519    0.0000 F   0  0  0  0  0  0  0  0  0  0  0  0
   -0.5837    2.2374    0.0000 C   0  0  0  0  0  0  0  0  0  0  0  0
   -0.1712    2.9519    0.0000 F   0  0  0  0  0  0  0  0  0  0  0  0
    1.1387    2.1904    0.0000 N   0  0  0  0  0  0  0  0  0  0  0  0
    0.8838    2.9750    0.0000 C   0  0  0  0  0  0  0  0  0  0  0  0
    1.9233    1.9354    0.0000 C   0  0  0  0  0  0  0  0  0  0  0  0
    2.6378    2.3479    0.0000 C   0  0  0  0  0  0  0  0  0  0  0  0
  1  2  1  0  0  0  0
  2  3  4  0  0  0  0
  3  4  4  0  0  0  0
  4  5  1  0  0  0  0
  5  6  2  0  0  0  0
  5  7  1  0  0  0  0
  4  8  4  0  0  0  0
  8  9  4  0  0  0  0
  9 10  4  0  0  0  0
 10 11  1  0  0  0  0
 11 12  4  0  0  0  0
 12 13  1  0  0  0  0
 12 14  4  0  0  0  0
 14 15  1  0  0  0  0
 14 16  4  0  0  0  0
 16 17  1  0  0  0  0
 17 18  4  0  0  0  0
 18 19  4  0  0  0  0
 19 20  4  0  0  0  0
 20 21  4  0  0  0  0
 21 22  4  0  0  0  0
 17 22  4  0  0  0  0
 16 23  4  0  0  0  0
 23 24  1  0  0  0  0
 23 25  4  0  0  0  0
 11 25  4  0  0  0  0
 25 26  1  0  0  0  0
 10 27  4  0  0  0  0
 27 28  1  0  0  0  0
 27 29  4  0  0  0  0
  8 29  4  0  0  0  0
 29 30  4  0  0  0  0
  2 30  4  0  0  0  0
M  END
> <IC50(uM)>
0.116

> <Outcome>
1.0

> <BindingDB ID>
297815

> <BindingDB MonomerID>
155471

> <BindingDB Ligand Name>
US9006454, I113

> <Curation/DataSource>
US Patent

> <Article DOI>
?

> <PMID>
?

> <Patent Number>
US9006454

> <Authors>
Thunuguntla, SS; Subramanya, H; Kunnam, SR; Sanivaru Vijay, SR; Bingi, C; Kusanur, R; Schwarz, M; Arlt, M

> <Link to Ligand in BindingDB>
http://www.bindingdb.org/bind/chemsearch/marvin/MolStructure.jsp?monomerid=155471

> <Link to Ligand-Target Pair in BindingDB>
http://www.bindingdb.org/jsp/dbsearch/PrimarySearch_ki.jsp?energyterm=kJ/mole&tag=r21&monomerid=155471&enzyme=Dihydroorotate+dehydrogenase&column=ki&startPg=0&Increment=50&submit=Search

> <PubChem CID>
58073752

> <PubChem SID>
253658408

$$$$

  Mrv2115 07222212352D          

 24 27  0  0  0  0            999 V2000
    1.9457   -4.4410    0.0000 O   0  0  0  0  0  0  0  0  0  0  0  0
    1.1387   -4.2695    0.0000 C   0  0  0  0  0  0  0  0  0  0  0  0
    0.5867   -4.8826    0.0000 N   0  0  0  0  0  0  0  0  0  0  0  0
    0.8416   -5.6672    0.0000 C   0  0  0  0  0  0  0  0  0  0  0  0
    1.4547   -6.2193    0.0000 C   0  0  0  0  0  0  0  0  0  0  0  0
    0.6701   -6.4742    0.0000 C   0  0  0  0  0  0  0  0  0  0  0  0
    0.8838   -3.4849    0.0000 C   0  0  0  0  0  0  0  0  0  0  0  0
    0.0992   -3.2299    0.0000 C   0  0  0  0  0  0  0  0  0  0  0  0
    0.0992   -2.4049    0.0000 C   0  0  0  0  0  0  0  0  0  0  0  0
    0.8838   -2.1500    0.0000 C   0  0  0  0  0  0  0  0  0  0  0  0
    1.1387   -1.3654    0.0000 N   0  0  0  0  0  0  0  0  0  0  0  0
    0.6538   -0.6979    0.0000 C   0  0  0  0  0  0  0  0  0  0  0  0
   -0.1712   -0.6979    0.0000 C   0  0  0  0  0  0  0  0  0  0  0  0
   -0.9962   -0.6979    0.0000 F   0  0  0  0  0  0  0  0  0  0  0  0
   -0.1712    0.1271    0.0000 F   0  0  0  0  0  0  0  0  0  0  0  0
   -0.1712   -1.5229    0.0000 F   0  0  0  0  0  0  0  0  0  0  0  0
    1.1387   -0.0305    0.0000 N   0  0  0  0  0  0  0  0  0  0  0  0
    1.9233   -0.2854    0.0000 C   0  0  0  0  0  0  0  0  0  0  0  0
    2.6378    0.1271    0.0000 C   0  0  0  0  0  0  0  0  0  0  0  0
    3.3523   -0.2854    0.0000 C   0  0  0  0  0  0  0  0  0  0  0  0
    3.3523   -1.1104    0.0000 C   0  0  0  0  0  0  0  0  0  0  0  0
    2.6378   -1.5229    0.0000 C   0  0  0  0  0  0  0  0  0  0  0  0
    1.9233   -1.1104    0.0000 C   0  0  0  0  0  0  0  0  0  0  0  0
    1.3687   -2.8174    0.0000 S   0  0  0  0  0  0  0  0  0  0  0  0
  1  2  2  0  0  0  0
  2  3  1  0  0  0  0
  3  4  1  0  0  0  0
  4  5  1  0  0  0  0
  5  6  1  0  0  0  0
  4  6  1  0  0  0  0
  2  7  1  0  0  0  0
  7  8  4  0  0  0  0
  8  9  4  0  0  0  0
  9 10  4  0  0  0  0
 10 11  1  0  0  0  0
 11 12  4  0  0  0  0
 12 13  1  0  0  0  0
 13 14  1  0  0  0  0
 13 15  1  0  0  0  0
 13 16  1  0  0  0  0
 12 17  4  0  0  0  0
 17 18  4  0  0  0  0
 18 19  4  0  0  0  0
 19 20  4  0  0  0  0
 20 21  4  0  0  0  0
 21 22  4  0  0  0  0
 22 23  4  0  0  0  0
 18 23  4  0  0  0  0
 11 23  4  0  0  0  0
 10 24  4  0  0  0  0
  7 24  4  0  0  0  0
M  END
> <IC50(uM)>
30.0

> <Outcome>
0.0

> <BindingDB ID>
50924667

> <BindingDB MonomerID>
50379149

> <BindingDB Ligand Name>
CHEMBL2012941

> <Curation/DataSource>
ChEMBL

> <Article DOI>
10.1021/ml200143c

> <PMID>
24900364

> <Patent Number>
?

> <Authors>
Skerlj, RT; Bastos, CM; Booker, ML; Kramer, ML; Barker, RH; Celatka, CA; Munoz, B; Sidhu, AB; Cortese, JF; Wittlin, S; Papastogiannidis, P; Angulo-Barturen, I; Jimenez-Diaz, MB; Sybertz, E

> <Link to Ligand in BindingDB>
http://www.bindingdb.org/bind/chemsearch/marvin/MolStructure.jsp?monomerid=50379149

> <Link to Ligand-Target Pair in BindingDB>
http://www.bindingdb.org/jsp/dbsearch/PrimarySearch_ki.jsp?energyterm=kJ/mole&tag=r21&monomerid=50379149&enzyme=Dihydroorotate+dehydrogenase&column=ki&startPg=0&Increment=50&submit=Search

> <PubChem CID>
70685307

> <PubChem SID>
160858232

$$$$

  Mrv2115 07222212352D          

 29 32  0  0  0  0            999 V2000
   -4.2868    2.4750    0.0000 C   0  0  0  0  0  0  0  0  0  0  0  0
   -3.5724    2.0625    0.0000 C   0  0  0  0  0  0  0  0  0  0  0  0
   -2.8579    2.4750    0.0000 C   0  0  0  0  0  0  0  0  0  0  0  0
   -2.1434    2.0625    0.0000 C   0  0  0  0  0  0  0  0  0  0  0  0
   -2.1434    1.2375    0.0000 C   0  0  0  0  0  0  0  0  0  0  0  0
   -1.4289    0.8250    0.0000 C   0  0  0  0  0  0  0  0  0  0  0  0
   -0.7145    1.2375    0.0000 C   0  0  0  0  0  0  0  0  0  0  0  0
    0.0000    0.8250    0.0000 C   0  0  0  0  0  0  0  0  0  0  0  0
    0.0000   -0.0000    0.0000 C   0  0  0  0  0  0  0  0  0  0  0  0
    0.7145   -0.4125    0.0000 C   0  0  0  0  0  0  0  0  0  0  0  0
    1.4289    0.0000    0.0000 N   0  0  0  0  0  0  0  0  0  0  0  0
    2.1434   -0.4125    0.0000 C   0  0  0  0  0  0  0  0  0  0  0  0
    2.8579    0.0000    0.0000 C   0  0  0  0  0  0  0  0  0  0  0  0
    3.5724   -0.4125    0.0000 C   0  0  0  0  0  0  0  0  0  0  0  0
    3.5724   -1.2375    0.0000 C   0  0  0  0  0  0  0  0  0  0  0  0
    4.2868   -1.6500    0.0000 F   0  0  0  0  0  0  0  0  0  0  0  0
    2.8579   -1.6500    0.0000 C   0  0  0  0  0  0  0  0  0  0  0  0
    2.1434   -1.2375    0.0000 C   0  0  0  0  0  0  0  0  0  0  0  0
    1.4289   -1.6500    0.0000 C   0  0  0  0  0  0  0  0  0  0  0  0
    1.4289   -2.4750    0.0000 C   0  0  0  0  0  0  0  0  0  0  0  0
    0.7145   -2.8875    0.0000 O   0  0  0  0  0  0  0  0  0  0  0  0
    2.1434   -2.8875    0.0000 O   0  0  0  0  0  0  0  0  0  0  0  0
    0.7145   -1.2375    0.0000 C   0  0  0  0  0  0  0  0  0  0  0  0
    0.0000   -1.6500    0.0000 C   0  0  0  0  0  0  0  0  0  0  0  0
   -0.7145   -0.4125    0.0000 C   0  0  0  0  0  0  0  0  0  0  0  0
   -1.4289   -0.0000    0.0000 C   0  0  0  0  0  0  0  0  0  0  0  0
   -2.8579    0.8250    0.0000 C   0  0  0  0  0  0  0  0  0  0  0  0
   -2.8579   -0.0000    0.0000 F   0  0  0  0  0  0  0  0  0  0  0  0
   -3.5724    1.2375    0.0000 N   0  0  0  0  0  0  0  0  0  0  0  0
  1  2  1  0  0  0  0
  2  3  4  0  0  0  0
  3  4  4  0  0  0  0
  4  5  4  0  0  0  0
  5  6  1  0  0  0  0
  6  7  4  0  0  0  0
  7  8  4  0  0  0  0
  8  9  4  0  0  0  0
  9 10  1  0  0  0  0
 10 11  4  0  0  0  0
 11 12  4  0  0  0  0
 12 13  4  0  0  0  0
 13 14  4  0  0  0  0
 14 15  4  0  0  0  0
 15 16  1  0  0  0  0
 15 17  4  0  0  0  0
 17 18  4  0  0  0  0
 12 18  4  0  0  0  0
 18 19  4  0  0  0  0
 19 20  1  0  0  0  0
 20 21  2  0  0  0  0
 20 22  1  0  0  0  0
 19 23  4  0  0  0  0
 10 23  4  0  0  0  0
 23 24  1  0  0  0  0
  9 25  4  0  0  0  0
 25 26  4  0  0  0  0
  6 26  4  0  0  0  0
  5 27  4  0  0  0  0
 27 28  1  0  0  0  0
 27 29  4  0  0  0  0
  2 29  4  0  0  0  0
M  END
> <IC50(uM)>
3.31

> <Outcome>
0.0

> <BindingDB ID>
51126203

> <BindingDB MonomerID>
50461889

> <BindingDB Ligand Name>
CHEMBL4225740

> <Curation/DataSource>
ChEMBL

> <Article DOI>
10.1021/acs.jmedchem.7b01862

> <PMID>
29727569

> <Patent Number>
?

> <Authors>
Madak, JT; Cuthbertson, CR; Miyata, Y; Tamura, S; Petrunak, EM; Stuckey, JA; Han, Y; He, M; Sun, D; Showalter, HD; Neamati, N

> <Link to Ligand in BindingDB>
http://www.bindingdb.org/bind/chemsearch/marvin/MolStructure.jsp?monomerid=50461889

> <Link to Ligand-Target Pair in BindingDB>
http://www.bindingdb.org/jsp/dbsearch/PrimarySearch_ki.jsp?energyterm=kJ/mole&tag=r21&monomerid=50461889&enzyme=Dihydroorotate+dehydrogenase&column=ki&startPg=0&Increment=50&submit=Search

> <PubChem CID>
145970592

> <PubChem SID>
433929154

$$$$

  Mrv2115 07222212352D          

 34 36  0  0  0  0            999 V2000
    2.1434   -3.7125    0.0000 C   0  0  0  0  0  0  0  0  0  0  0  0
    1.4289   -4.1250    0.0000 C   0  0  0  0  0  0  0  0  0  0  0  0
    1.4289   -4.9500    0.0000 N   0  0  0  0  0  0  0  0  0  0  0  0
    2.0964   -5.4349    0.0000 C   0  0  0  0  0  0  0  0  0  0  0  0
    2.8810   -5.1800    0.0000 C   0  0  0  0  0  0  0  0  0  0  0  0
    3.4941   -5.7320    0.0000 O   0  0  0  0  0  0  0  0  0  0  0  0
    3.0525   -4.3730    0.0000 O   0  0  0  0  0  0  0  0  0  0  0  0
    1.8414   -6.2195    0.0000 N   0  0  0  0  0  0  0  0  0  0  0  0
    1.0164   -6.2195    0.0000 N   0  0  0  0  0  0  0  0  0  0  0  0
    0.5315   -6.8870    0.0000 C   0  0  0  0  0  0  0  0  0  0  0  0
    0.8671   -7.6407    0.0000 C   0  0  0  0  0  0  0  0  0  0  0  0
    0.3822   -8.3081    0.0000 C   0  0  0  0  0  0  0  0  0  0  0  0
   -0.4383   -8.2219    0.0000 C   0  0  0  0  0  0  0  0  0  0  0  0
   -0.9232   -8.8893    0.0000 C   0  0  0  0  0  0  0  0  0  0  0  0
   -1.7437   -8.8031    0.0000 O   0  0  0  0  0  0  0  0  0  0  0  0
   -0.5877   -9.6430    0.0000 N   0  0  0  0  0  0  0  0  0  0  0  0
   -1.0726  -10.3104    0.0000 C   0  0  0  0  0  0  0  0  0  0  0  0
   -0.7371  -11.0641    0.0000 C   0  0  0  0  0  0  0  0  0  0  0  0
    0.0834  -11.1503    0.0000 F   0  0  0  0  0  0  0  0  0  0  0  0
   -1.2220  -11.7315    0.0000 C   0  0  0  0  0  0  0  0  0  0  0  0
   -2.0425  -11.6453    0.0000 C   0  0  0  0  0  0  0  0  0  0  0  0
   -2.3780  -10.8916    0.0000 C   0  0  0  0  0  0  0  0  0  0  0  0
   -1.8931  -10.2242    0.0000 C   0  0  0  0  0  0  0  0  0  0  0  0
   -2.2287   -9.4705    0.0000 Cl  0  0  0  0  0  0  0  0  0  0  0  0
   -0.7739   -7.4682    0.0000 C   0  0  0  0  0  0  0  0  0  0  0  0
   -1.5944   -7.3820    0.0000 O   0  0  0  0  0  0  0  0  0  0  0  0
   -1.9299   -6.6283    0.0000 C   0  0  0  0  0  0  0  0  0  0  0  0
   -1.4450   -5.9608    0.0000 C   0  0  0  0  0  0  0  0  0  0  0  0
   -2.7504   -6.5420    0.0000 C   0  0  0  0  0  0  0  0  0  0  0  0
   -3.2353   -7.2095    0.0000 F   0  0  0  0  0  0  0  0  0  0  0  0
   -3.0860   -5.7884    0.0000 F   0  0  0  0  0  0  0  0  0  0  0  0
   -0.2890   -6.8007    0.0000 C   0  0  0  0  0  0  0  0  0  0  0  0
    0.7615   -5.4349    0.0000 C   0  0  0  0  0  0  0  0  0  0  0  0
   -0.0231   -5.1800    0.0000 O   0  0  0  0  0  0  0  0  0  0  0  0
  1  2  1  0  0  0  0
  2  3  1  0  0  0  0
  3  4  4  0  0  0  0
  4  5  1  0  0  0  0
  5  6  2  0  0  0  0
  5  7  1  0  0  0  0
  4  8  4  0  0  0  0
  8  9  4  0  0  0  0
  9 10  1  0  0  0  0
 10 11  4  0  0  0  0
 11 12  4  0  0  0  0
 12 13  4  0  0  0  0
 13 14  1  0  0  0  0
 14 15  2  0  0  0  0
 14 16  1  0  0  0  0
 16 17  1  0  0  0  0
 17 18  4  0  0  0  0
 18 19  1  0  0  0  0
 18 20  4  0  0  0  0
 20 21  4  0  0  0  0
 21 22  4  0  0  0  0
 22 23  4  0  0  0  0
 17 23  4  0  0  0  0
 23 24  1  0  0  0  0
 13 25  4  0  0  0  0
 25 26  1  0  0  0  0
 26 27  1  0  0  0  0
 27 28  1  0  0  0  0
 27 29  1  0  0  0  0
 29 30  1  0  0  0  0
 29 31  1  0  0  0  0
 25 32  4  0  0  0  0
 10 32  4  0  0  0  0
  9 33  4  0  0  0  0
  3 33  4  0  0  0  0
 33 34  2  0  0  0  0
M  END
> <IC50(uM)>
0.05

> <Outcome>
1.0

> <BindingDB ID>
1098833; 972679

> <BindingDB MonomerID>
470557

> <BindingDB Ligand Name>
1-(4-[(2-chloro-6-fluorophenyl)carbamoyl]-3-{[1,1-difluoropropan-2-yl]oxy}phenyl)-4-ethyl-5-oxo-4,5-dihydro-1H-1,2,4-triazole-3-carboxylic acid (Racemic)::US10815215, Example 217::US11130745, Example 217; 1-(4-[(2-chloro-6-fluorophenyl)carbamoyl]-3-{[1,1-difluoropropan-2-yl]oxy}phenyl)-4-ethyl-5-oxo-4,5-dihydro-1H-1,2,4-triazole-3-carboxylic acid (Racemic)::US10815215, Example 217

> <Curation/DataSource>
US Patent

> <Article DOI>
?

> <PMID>
?

> <Patent Number>
US11130745; US10815215

> <Authors>
Gradl, SN; Nguyen, D; Eis, K; Gunther, J; Stellfeld, T; Janzer, A; Christian, S; Muller, T; Sheikh, SE; Sykes, DB; Ferrara, SJ; Krober, M; Merz, C; Niehues, M; Schafer, M; Zimmermann, K; Nising, CF; Gradl, SN; Nguyen, D; Eis, K; Gunther, J; Stellfeld, T; Janzer, A; Christian, S; Muller, T; Sheikh, SE; Zhou, HJ; Zhao, C; Sykes, DB; Ferrara, SJ; Liu, K; Krober, M; Merz, C; Niehues, M; Schafer, M; Zimmermann, K; Nising, CF

> <Link to Ligand in BindingDB>
http://www.bindingdb.org/bind/chemsearch/marvin/MolStructure.jsp?monomerid=470557

> <Link to Ligand-Target Pair in BindingDB>
http://www.bindingdb.org/jsp/dbsearch/PrimarySearch_ki.jsp?energyterm=kJ/mole&tag=r21&monomerid=470557&enzyme=Dihydroorotate+dehydrogenase&column=ki&startPg=0&Increment=50&submit=Search

> <PubChem CID>
134469932

> <PubChem SID>
441609733

$$$$

  Mrv2115 07222212352D          

 37 41  0  0  0  0            999 V2000
   -5.1659    1.4455    0.0000 C   0  0  0  0  0  0  0  0  0  0  0  0
   -5.5784    0.7310    0.0000 C   0  0  0  0  0  0  0  0  0  0  0  0
   -6.4034    0.7310    0.0000 C   0  0  0  0  0  0  0  0  0  0  0  0
   -6.8159    0.0165    0.0000 C   0  0  0  0  0  0  0  0  0  0  0  0
   -6.4034   -0.6979    0.0000 C   0  0  0  0  0  0  0  0  0  0  0  0
   -5.5784   -0.6979    0.0000 C   0  0  0  0  0  0  0  0  0  0  0  0
   -5.1659   -1.4124    0.0000 F   0  0  0  0  0  0  0  0  0  0  0  0
   -5.1659    0.0165    0.0000 C   0  0  0  0  0  0  0  0  0  0  0  0
   -4.3409    0.0165    0.0000 N   0  0  0  0  0  0  0  0  0  0  0  0
   -3.9284   -0.6979    0.0000 C   0  0  0  0  0  0  0  0  0  0  0  0
   -4.3409   -1.4124    0.0000 O   0  0  0  0  0  0  0  0  0  0  0  0
   -3.1034   -0.6979    0.0000 C   0  0  0  0  0  0  0  0  0  0  0  0
   -2.6909    0.0165    0.0000 C   0  0  0  0  0  0  0  0  0  0  0  0
   -1.8659    0.0165    0.0000 C   0  0  0  0  0  0  0  0  0  0  0  0
   -1.4534    0.7310    0.0000 F   0  0  0  0  0  0  0  0  0  0  0  0
   -1.4534   -0.6979    0.0000 C   0  0  0  0  0  0  0  0  0  0  0  0
   -0.6284   -0.6979    0.0000 N   0  0  0  0  0  0  0  0  0  0  0  0
   -0.1435   -1.3654    0.0000 N   0  0  0  0  0  0  0  0  0  0  0  0
    0.6411   -1.1104    0.0000 C   0  0  0  0  0  0  0  0  0  0  0  0
    0.6411   -0.2854    0.0000 N   0  0  0  0  0  0  0  0  0  0  0  0
   -0.1435   -0.0305    0.0000 C   0  0  0  0  0  0  0  0  0  0  0  0
   -0.3984    0.7541    0.0000 O   0  0  0  0  0  0  0  0  0  0  0  0
    1.3556    0.1271    0.0000 C   0  0  0  0  0  0  0  0  0  0  0  0
    2.0701   -0.2854    0.0000 C   0  0  0  0  0  0  0  0  0  0  0  0
    2.0701   -1.1104    0.0000 O   0  0  0  0  0  0  0  0  0  0  0  0
    1.3556   -1.5229    0.0000 C   0  0  0  0  0  0  0  0  0  0  0  0
   -1.8659   -1.4124    0.0000 C   0  0  0  0  0  0  0  0  0  0  0  0
   -2.6909   -1.4124    0.0000 C   0  0  0  0  0  0  0  0  0  0  0  0
   -3.1034   -2.1269    0.0000 O   0  0  0  0  0  0  0  0  0  0  0  0
   -2.6909   -2.8414    0.0000 C   0  0  0  0  0  0  0  0  0  0  0  0
   -3.1034   -3.5558    0.0000 C   0  0  0  0  0  0  0  0  0  0  0  0
   -1.8659   -2.8414    0.0000 C   0  0  0  0  0  0  0  0  0  0  0  0
   -1.4534   -3.5558    0.0000 N   0  0  0  0  0  0  0  0  0  0  0  0
   -0.6329   -3.6421    0.0000 C   0  0  0  0  0  0  0  0  0  0  0  0
   -0.4614   -4.4490    0.0000 C   0  0  0  0  0  0  0  0  0  0  0  0
   -1.1759   -4.8615    0.0000 C   0  0  0  0  0  0  0  0  0  0  0  0
   -1.7890   -4.3095    0.0000 C   0  0  0  0  0  0  0  0  0  0  0  0
  1  2  1  0  0  0  0
  2  3  4  0  0  0  0
  3  4  4  0  0  0  0
  4  5  4  0  0  0  0
  5  6  4  0  0  0  0
  6  7  1  0  0  0  0
  6  8  4  0  0  0  0
  2  8  4  0  0  0  0
  8  9  1  0  0  0  0
  9 10  1  0  0  0  0
 10 11  2  0  0  0  0
 10 12  1  0  0  0  0
 12 13  4  0  0  0  0
 13 14  4  0  0  0  0
 14 15  1  0  0  0  0
 14 16  4  0  0  0  0
 16 17  1  0  0  0  0
 17 18  4  0  0  0  0
 18 19  4  0  0  0  0
 19 20  4  0  0  0  0
 20 21  4  0  0  0  0
 17 21  4  0  0  0  0
 21 22  2  0  0  0  0
 20 23  1  0  0  0  0
 23 24  1  0  0  0  0
 24 25  1  0  0  0  0
 25 26  1  0  0  0  0
 19 26  1  0  0  0  0
 16 27  4  0  0  0  0
 27 28  4  0  0  0  0
 12 28  4  0  0  0  0
 28 29  1  0  0  0  0
 29 30  1  0  0  0  0
 30 31  1  0  0  0  0
 30 32  1  0  0  0  0
 32 33  1  0  0  0  0
 33 34  1  0  0  0  0
 34 35  1  0  0  0  0
 35 36  1  0  0  0  0
 36 37  1  0  0  0  0
 33 37  1  0  0  0  0
M  END
> <IC50(uM)>
0.095

> <Outcome>
1.0

> <BindingDB ID>
1020684

> <BindingDB MonomerID>
490610

> <BindingDB Ligand Name>
US10968216, Example 278::rac-5-fluoro-N-(2-fluoro-6-methylphenyl)-4-(3-oxo-5,6-dihydro-3H-[1,2,4]triazolo[3,4-c][1,4]oxazin-2(8H)-yl)-2-{[1-(pyrrolidin-1-yl)propan-2-yl]oxy}benzamide

> <Curation/DataSource>
US Patent

> <Article DOI>
?

> <PMID>
?

> <Patent Number>
US10968216

> <Authors>
Gradl, SN; Nguyen, D; Eis, K; Gunther, J; Stellfeld, T; Janzer, A; Christian, S; Mueller, T; Sheikh, SE; Zhou, HJ; Zhao, C; Sykes, DB; Ferrara, SJ; Liu, K; Herbert, SA; Merz, C; Niehues, M; Nising, CF; Schafer, M; Zimmermann, K; Knablein, J; Thede, K; Faupel, T

> <Link to Ligand in BindingDB>
http://www.bindingdb.org/bind/chemsearch/marvin/MolStructure.jsp?monomerid=490610

> <Link to Ligand-Target Pair in BindingDB>
http://www.bindingdb.org/jsp/dbsearch/PrimarySearch_ki.jsp?energyterm=kJ/mole&tag=r21&monomerid=490610&enzyme=Dihydroorotate+dehydrogenase&column=ki&startPg=0&Increment=50&submit=Search

> <PubChem CID>
134474537

> <PubChem SID>
447117336

$$$$

  Mrv2115 07222212352D          

 39 42  0  0  0  0            999 V2000
    2.0367   -0.4741    0.0000 C   0  0  0  0  0  0  0  0  0  0  0  0
    2.0367   -1.2991    0.0000 C   0  0  0  0  0  0  0  0  0  0  0  0
    2.7041   -1.7840    0.0000 N   0  0  0  0  0  0  0  0  0  0  0  0
    2.4492   -2.5687    0.0000 N   0  0  0  0  0  0  0  0  0  0  0  0
    2.9341   -3.2361    0.0000 C   0  0  0  0  0  0  0  0  0  0  0  0
    3.7546   -3.1499    0.0000 C   0  0  0  0  0  0  0  0  0  0  0  0
    4.2395   -3.8173    0.0000 C   0  0  0  0  0  0  0  0  0  0  0  0
    5.0600   -3.7311    0.0000 O   0  0  0  0  0  0  0  0  0  0  0  0
    5.3956   -2.9774    0.0000 C   0  0  0  0  0  0  0  0  0  0  0  0
    6.2161   -2.8911    0.0000 C   0  0  0  0  0  0  0  0  0  0  0  0
    4.9106   -2.3099    0.0000 C   0  0  0  0  0  0  0  0  0  0  0  0
    5.5781   -1.8250    0.0000 F   0  0  0  0  0  0  0  0  0  0  0  0
    4.2432   -2.7949    0.0000 F   0  0  0  0  0  0  0  0  0  0  0  0
    4.4257   -1.6425    0.0000 F   0  0  0  0  0  0  0  0  0  0  0  0
    3.9040   -4.5710    0.0000 C   0  0  0  0  0  0  0  0  0  0  0  0
    4.3889   -5.2384    0.0000 C   0  0  0  0  0  0  0  0  0  0  0  0
    5.2094   -5.1522    0.0000 O   0  0  0  0  0  0  0  0  0  0  0  0
    4.0533   -5.9921    0.0000 N   0  0  0  0  0  0  0  0  0  0  0  0
    4.5383   -6.6595    0.0000 C   0  0  0  0  0  0  0  0  0  0  0  0
    5.3587   -6.5733    0.0000 C   0  0  0  0  0  0  0  0  0  0  0  0
    5.6943   -5.8196    0.0000 F   0  0  0  0  0  0  0  0  0  0  0  0
    5.8437   -7.2407    0.0000 C   0  0  0  0  0  0  0  0  0  0  0  0
    5.5081   -7.9944    0.0000 C   0  0  0  0  0  0  0  0  0  0  0  0
    4.6876   -8.0806    0.0000 C   0  0  0  0  0  0  0  0  0  0  0  0
    4.2027   -7.4132    0.0000 C   0  0  0  0  0  0  0  0  0  0  0  0
    3.3822   -7.4994    0.0000 F   0  0  0  0  0  0  0  0  0  0  0  0
    3.0835   -4.6572    0.0000 C   0  0  0  0  0  0  0  0  0  0  0  0
    2.5986   -3.9898    0.0000 C   0  0  0  0  0  0  0  0  0  0  0  0
    1.7781   -4.0760    0.0000 F   0  0  0  0  0  0  0  0  0  0  0  0
    1.6242   -2.5687    0.0000 C   0  0  0  0  0  0  0  0  0  0  0  0
    1.1393   -3.2361    0.0000 O   0  0  0  0  0  0  0  0  0  0  0  0
    1.3693   -1.7840    0.0000 N   0  0  0  0  0  0  0  0  0  0  0  0
    0.5846   -1.5291    0.0000 C   0  0  0  0  0  0  0  0  0  0  0  0
    0.4131   -0.7221    0.0000 C   0  0  0  0  0  0  0  0  0  0  0  0
   -0.3715   -0.4672    0.0000 C   0  0  0  0  0  0  0  0  0  0  0  0
   -0.5430    0.3398    0.0000 C   0  0  0  0  0  0  0  0  0  0  0  0
    0.0701    0.8918    0.0000 C   0  0  0  0  0  0  0  0  0  0  0  0
    0.8547    0.6369    0.0000 C   0  0  0  0  0  0  0  0  0  0  0  0
    1.0262   -0.1701    0.0000 C   0  0  0  0  0  0  0  0  0  0  0  0
  1  2  1  0  0  0  0
  2  3  4  0  0  0  0
  3  4  4  0  0  0  0
  4  5  1  0  0  0  0
  5  6  4  0  0  0  0
  6  7  4  0  0  0  0
  7  8  1  0  0  0  0
  8  9  1  0  0  0  0
  9 10  1  0  0  0  0
  9 11  1  0  0  0  0
 11 12  1  0  0  0  0
 11 13  1  0  0  0  0
 11 14  1  0  0  0  0
  7 15  4  0  0  0  0
 15 16  1  0  0  0  0
 16 17  2  0  0  0  0
 16 18  1  0  0  0  0
 18 19  1  0  0  0  0
 19 20  4  0  0  0  0
 20 21  1  0  0  0  0
 20 22  4  0  0  0  0
 22 23  4  0  0  0  0
 23 24  4  0  0  0  0
 24 25  4  0  0  0  0
 19 25  4  0  0  0  0
 25 26  1  0  0  0  0
 15 27  4  0  0  0  0
 27 28  4  0  0  0  0
  5 28  4  0  0  0  0
 28 29  1  0  0  0  0
  4 30  4  0  0  0  0
 30 31  2  0  0  0  0
 30 32  4  0  0  0  0
  2 32  4  0  0  0  0
 32 33  1  0  0  0  0
 33 34  1  0  0  0  0
 34 35  4  0  0  0  0
 35 36  4  0  0  0  0
 36 37  4  0  0  0  0
 37 38  4  0  0  0  0
 38 39  4  0  0  0  0
 34 39  4  0  0  0  0
M  END
> <IC50(uM)>
8.5

> <Outcome>
0.0

> <BindingDB ID>
972576; 1098730

> <BindingDB MonomerID>
470451

> <BindingDB Ligand Name>
4-(4-benzyl-3-methyl-5-oxo-4,5-dihydro-1H-1,2,4-triazol-1-yl)-N-(2,6-difluorophenyl)-5-fluoro-2-{[(2S)-1,1,1-trifluoropropan-2-yl]oxy}benzamide::US10815215, Example 118; 4-(4-benzyl-3-methyl-5-oxo-4,5-dihydro-1H-1,2,4-triazol-1-yl)-N-(2,6-difluorophenyl)-5-fluoro-2-{[(2S)-1,1,1-trifluoropropan-2-yl]oxy}benzamide::US10815215, Example 118::US11130745, Example 118

> <Curation/DataSource>
US Patent

> <Article DOI>
?

> <PMID>
?

> <Patent Number>
US10815215; US11130745

> <Authors>
Gradl, SN; Nguyen, D; Eis, K; Gunther, J; Stellfeld, T; Janzer, A; Christian, S; Muller, T; Sheikh, SE; Zhou, HJ; Zhao, C; Sykes, DB; Ferrara, SJ; Liu, K; Krober, M; Merz, C; Niehues, M; Schafer, M; Zimmermann, K; Nising, CF; Gradl, SN; Nguyen, D; Eis, K; Gunther, J; Stellfeld, T; Janzer, A; Christian, S; Muller, T; Sheikh, SE; Sykes, DB; Ferrara, SJ; Krober, M; Merz, C; Niehues, M; Schafer, M; Zimmermann, K; Nising, CF

> <Link to Ligand in BindingDB>
http://www.bindingdb.org/bind/chemsearch/marvin/MolStructure.jsp?monomerid=470451

> <Link to Ligand-Target Pair in BindingDB>
http://www.bindingdb.org/jsp/dbsearch/PrimarySearch_ki.jsp?energyterm=kJ/mole&tag=r21&monomerid=470451&enzyme=Dihydroorotate+dehydrogenase&column=ki&startPg=0&Increment=50&submit=Search

> <PubChem CID>
134469843

> <PubChem SID>
441609628

$$$$

  Mrv2115 07222212352D          

 32 36  0  0  0  0            999 V2000
   -0.1712   -0.6979    0.0000 C   0  0  0  0  0  0  0  0  0  0  0  0
    0.6538   -0.6979    0.0000 C   0  0  0  0  0  0  0  0  0  0  0  0
    1.1387   -0.0305    0.0000 N   0  0  0  0  0  0  0  0  0  0  0  0
    1.9233   -0.2854    0.0000 C   0  0  0  0  0  0  0  0  0  0  0  0
    2.6378    0.1271    0.0000 C   0  0  0  0  0  0  0  0  0  0  0  0
    2.6378    0.9521    0.0000 C   0  0  0  0  0  0  0  0  0  0  0  0
    3.3523    1.3646    0.0000 O   0  0  0  0  0  0  0  0  0  0  0  0
    1.9233    1.3646    0.0000 O   0  0  0  0  0  0  0  0  0  0  0  0
    3.3523   -0.2854    0.0000 C   0  0  0  0  0  0  0  0  0  0  0  0
    3.3523   -1.1104    0.0000 C   0  0  0  0  0  0  0  0  0  0  0  0
    4.0668   -1.5229    0.0000 C   0  0  0  0  0  0  0  0  0  0  0  0
    4.7812   -1.1104    0.0000 C   0  0  0  0  0  0  0  0  0  0  0  0
    5.4957   -1.5229    0.0000 C   0  0  0  0  0  0  0  0  0  0  0  0
    5.4957   -2.3479    0.0000 C   0  0  0  0  0  0  0  0  0  0  0  0
    6.2102   -2.7604    0.0000 C   0  0  0  0  0  0  0  0  0  0  0  0
    6.9246   -2.3479    0.0000 C   0  0  0  0  0  0  0  0  0  0  0  0
    7.6391   -2.7604    0.0000 C   0  0  0  0  0  0  0  0  0  0  0  0
    7.6391   -3.5854    0.0000 C   0  0  0  0  0  0  0  0  0  0  0  0
    6.9246   -3.9979    0.0000 C   0  0  0  0  0  0  0  0  0  0  0  0
    6.2102   -3.5854    0.0000 C   0  0  0  0  0  0  0  0  0  0  0  0
    5.4957   -3.9979    0.0000 C   0  0  0  0  0  0  0  0  0  0  0  0
    5.4957   -4.8229    0.0000 N   0  0  0  0  0  0  0  0  0  0  0  0
    6.2102   -5.2354    0.0000 C   0  0  0  0  0  0  0  0  0  0  0  0
    6.2102   -6.0604    0.0000 C   0  0  0  0  0  0  0  0  0  0  0  0
    5.4957   -6.4729    0.0000 O   0  0  0  0  0  0  0  0  0  0  0  0
    4.7812   -6.0604    0.0000 C   0  0  0  0  0  0  0  0  0  0  0  0
    4.7812   -5.2354    0.0000 C   0  0  0  0  0  0  0  0  0  0  0  0
    4.7812   -2.7604    0.0000 C   0  0  0  0  0  0  0  0  0  0  0  0
    4.0668   -2.3479    0.0000 C   0  0  0  0  0  0  0  0  0  0  0  0
    2.6378   -1.5229    0.0000 C   0  0  0  0  0  0  0  0  0  0  0  0
    1.9233   -1.1104    0.0000 C   0  0  0  0  0  0  0  0  0  0  0  0
    1.1387   -1.3654    0.0000 N   0  0  0  0  0  0  0  0  0  0  0  0
  1  2  1  0  0  0  0
  2  3  4  0  0  0  0
  3  4  4  0  0  0  0
  4  5  4  0  0  0  0
  5  6  1  0  0  0  0
  6  7  2  0  0  0  0
  6  8  1  0  0  0  0
  5  9  4  0  0  0  0
  9 10  4  0  0  0  0
 10 11  1  0  0  0  0
 11 12  4  0  0  0  0
 12 13  4  0  0  0  0
 13 14  4  0  0  0  0
 14 15  1  0  0  0  0
 15 16  4  0  0  0  0
 16 17  4  0  0  0  0
 17 18  4  0  0  0  0
 18 19  4  0  0  0  0
 19 20  4  0  0  0  0
 15 20  4  0  0  0  0
 20 21  1  0  0  0  0
 21 22  1  0  0  0  0
 22 23  1  0  0  0  0
 23 24  1  0  0  0  0
 24 25  1  0  0  0  0
 25 26  1  0  0  0  0
 26 27  1  0  0  0  0
 22 27  1  0  0  0  0
 14 28  4  0  0  0  0
 28 29  4  0  0  0  0
 11 29  4  0  0  0  0
 10 30  4  0  0  0  0
 30 31  4  0  0  0  0
  4 31  4  0  0  0  0
 31 32  4  0  0  0  0
  2 32  4  0  0  0  0
M  STY  1   1 DAT
M  SAL   1  1  32
M  SDT   1 MRV_IMPLICIT_H                                        
M  SDD   1     0.5304   -0.4125    DR    ALL  0       0  
M  SED   1 IMPL_H1
M  END
> <IC50(uM)>
0.055

> <Outcome>
1.0

> <BindingDB ID>
1045597

> <BindingDB MonomerID>
501655

> <BindingDB Ligand Name>
US11028054, Example 45

> <Curation/DataSource>
US Patent

> <Article DOI>
?

> <PMID>
?

> <Patent Number>
US11028054

> <Authors>
Thunuguntla, SS; Hosahalli, S; Panigrahi, SK; Schwarz, M; Arit, M

> <Link to Ligand in BindingDB>
http://www.bindingdb.org/bind/chemsearch/marvin/MolStructure.jsp?monomerid=501655

> <Link to Ligand-Target Pair in BindingDB>
http://www.bindingdb.org/jsp/dbsearch/PrimarySearch_ki.jsp?energyterm=kJ/mole&tag=r21&monomerid=501655&enzyme=Dihydroorotate+dehydrogenase&column=ki&startPg=0&Increment=50&submit=Search

> <PubChem CID>
?

> <PubChem SID>
?

$$$$

  Mrv2115 07222212352D          

 34 37  0  0  0  0            999 V2000
   -5.1659    1.4455    0.0000 C   0  0  0  0  0  0  0  0  0  0  0  0
   -4.3409    1.4455    0.0000 C   0  0  0  0  0  0  0  0  0  0  0  0
   -3.9284    2.1599    0.0000 C   0  0  0  0  0  0  0  0  0  0  0  0
   -3.1034    2.1599    0.0000 C   0  0  0  0  0  0  0  0  0  0  0  0
   -2.6909    1.4455    0.0000 N   0  0  0  0  0  0  0  0  0  0  0  0
   -3.1034    0.7310    0.0000 N   0  0  0  0  0  0  0  0  0  0  0  0
   -3.9284    0.7310    0.0000 C   0  0  0  0  0  0  0  0  0  0  0  0
   -4.3409    0.0165    0.0000 N   0  0  0  0  0  0  0  0  0  0  0  0
   -3.9284   -0.6979    0.0000 C   0  0  0  0  0  0  0  0  0  0  0  0
   -4.3409   -1.4124    0.0000 O   0  0  0  0  0  0  0  0  0  0  0  0
   -3.1034   -0.6979    0.0000 C   0  0  0  0  0  0  0  0  0  0  0  0
   -2.6909    0.0165    0.0000 C   0  0  0  0  0  0  0  0  0  0  0  0
   -1.8659    0.0165    0.0000 C   0  0  0  0  0  0  0  0  0  0  0  0
   -1.4534    0.7310    0.0000 Cl  0  0  0  0  0  0  0  0  0  0  0  0
   -1.4534   -0.6979    0.0000 C   0  0  0  0  0  0  0  0  0  0  0  0
   -0.6284   -0.6979    0.0000 N   0  0  0  0  0  0  0  0  0  0  0  0
   -0.1435   -1.3654    0.0000 N   0  0  0  0  0  0  0  0  0  0  0  0
    0.6411   -1.1104    0.0000 C   0  0  0  0  0  0  0  0  0  0  0  0
    0.6411   -0.2854    0.0000 N   0  0  0  0  0  0  0  0  0  0  0  0
   -0.1435   -0.0305    0.0000 C   0  0  0  0  0  0  0  0  0  0  0  0
   -0.3984    0.7541    0.0000 O   0  0  0  0  0  0  0  0  0  0  0  0
    1.3556    0.1271    0.0000 C   0  0  0  0  0  0  0  0  0  0  0  0
    2.0701   -0.2854    0.0000 C   0  0  0  0  0  0  0  0  0  0  0  0
    2.0701   -1.1104    0.0000 C   0  0  0  0  0  0  0  0  0  0  0  0
    1.3556   -1.5229    0.0000 C   0  0  0  0  0  0  0  0  0  0  0  0
   -1.8659   -1.4124    0.0000 C   0  0  0  0  0  0  0  0  0  0  0  0
   -2.6909   -1.4124    0.0000 C   0  0  0  0  0  0  0  0  0  0  0  0
   -3.1034   -2.1269    0.0000 O   0  0  0  0  0  0  0  0  0  0  0  0
   -2.6909   -2.8414    0.0000 C   0  0  0  0  0  0  0  0  0  0  0  0
   -1.8659   -2.8414    0.0000 C   0  0  0  0  0  0  0  0  0  0  0  0
   -3.1034   -3.5558    0.0000 C   0  0  0  0  0  0  0  0  0  0  0  0
   -3.8179   -3.1433    0.0000 F   0  0  0  0  0  0  0  0  0  0  0  0
   -2.3890   -3.9683    0.0000 F   0  0  0  0  0  0  0  0  0  0  0  0
   -3.5159   -4.2703    0.0000 F   0  0  0  0  0  0  0  0  0  0  0  0
  1  2  1  0  0  0  0
  2  3  4  0  0  0  0
  3  4  4  0  0  0  0
  4  5  4  0  0  0  0
  5  6  4  0  0  0  0
  6  7  4  0  0  0  0
  2  7  4  0  0  0  0
  7  8  1  0  0  0  0
  8  9  1  0  0  0  0
  9 10  2  0  0  0  0
  9 11  1  0  0  0  0
 11 12  4  0  0  0  0
 12 13  4  0  0  0  0
 13 14  1  0  0  0  0
 13 15  4  0  0  0  0
 15 16  1  0  0  0  0
 16 17  4  0  0  0  0
 17 18  4  0  0  0  0
 18 19  4  0  0  0  0
 19 20  4  0  0  0  0
 16 20  4  0  0  0  0
 20 21  2  0  0  0  0
 19 22  1  0  0  0  0
 22 23  1  0  0  0  0
 23 24  1  0  0  0  0
 24 25  1  0  0  0  0
 18 25  1  0  0  0  0
 15 26  4  0  0  0  0
 26 27  4  0  0  0  0
 11 27  4  0  0  0  0
 27 28  1  0  0  0  0
 28 29  1  0  0  0  0
 29 30  1  0  0  0  0
 29 31  1  0  0  0  0
 31 32  1  0  0  0  0
 31 33  1  0  0  0  0
 31 34  1  0  0  0  0
M  END
> <IC50(uM)>
8.0

> <Outcome>
0.0

> <BindingDB ID>
1020691

> <BindingDB MonomerID>
490617

> <BindingDB Ligand Name>
5-chloro-N-(4-methylpyridazin-3-yl)-4-(3-oxo-5,6,7,8-tetrahydro[1,2,4]triazolo[4,3-a]pyridin-2(3H)-yl)-2-{[(2S)-1,1,1-trifluoropropan-2-yl]oxy}benzamide::US10968216, Example 285

> <Curation/DataSource>
US Patent

> <Article DOI>
?

> <PMID>
?

> <Patent Number>
US10968216

> <Authors>
Gradl, SN; Nguyen, D; Eis, K; Gunther, J; Stellfeld, T; Janzer, A; Christian, S; Mueller, T; Sheikh, SE; Zhou, HJ; Zhao, C; Sykes, DB; Ferrara, SJ; Liu, K; Herbert, SA; Merz, C; Niehues, M; Nising, CF; Schafer, M; Zimmermann, K; Knablein, J; Thede, K; Faupel, T

> <Link to Ligand in BindingDB>
http://www.bindingdb.org/bind/chemsearch/marvin/MolStructure.jsp?monomerid=490617

> <Link to Ligand-Target Pair in BindingDB>
http://www.bindingdb.org/jsp/dbsearch/PrimarySearch_ki.jsp?energyterm=kJ/mole&tag=r21&monomerid=490617&enzyme=Dihydroorotate+dehydrogenase&column=ki&startPg=0&Increment=50&submit=Search

> <PubChem CID>
134474079

> <PubChem SID>
447117343

$$$$

  Mrv2115 07222212352D          

 30 34  0  0  0  0            999 V2000
    3.3523   -0.2854    0.0000 O   0  0  0  0  0  0  0  0  0  0  0  0
    3.3523   -1.1104    0.0000 C   0  0  0  0  0  0  0  0  0  0  0  0
    4.0668   -1.5229    0.0000 C   0  0  0  0  0  0  0  0  0  0  0  0
    4.7812   -1.1104    0.0000 C   0  0  0  0  0  0  0  0  0  0  0  0
    5.4957   -1.5229    0.0000 C   0  0  0  0  0  0  0  0  0  0  0  0
    5.4957   -2.3479    0.0000 C   0  0  0  0  0  0  0  0  0  0  0  0
    4.7812   -2.7604    0.0000 C   0  0  0  0  0  0  0  0  0  0  0  0
    4.0668   -2.3479    0.0000 C   0  0  0  0  0  0  0  0  0  0  0  0
    3.3523   -2.7604    0.0000 C   0  0  0  0  0  0  0  0  0  0  0  0
    3.3523   -3.5854    0.0000 O   0  0  0  0  0  0  0  0  0  0  0  0
    2.6378   -2.3479    0.0000 C   0  0  0  0  0  0  0  0  0  0  0  0
    2.6378   -1.5229    0.0000 C   0  0  0  0  0  0  0  0  0  0  0  0
    1.8532   -1.2680    0.0000 N   0  0  0  0  0  0  0  0  0  0  0  0
    1.3683   -1.9354    0.0000 N   0  0  0  0  0  0  0  0  0  0  0  0
    1.8532   -2.6029    0.0000 N   0  0  0  0  0  0  0  0  0  0  0  0
    1.5983   -3.3875    0.0000 C   0  0  0  0  0  0  0  0  0  0  0  0
    2.1503   -4.0006    0.0000 C   0  0  0  0  0  0  0  0  0  0  0  0
    1.8953   -4.7852    0.0000 C   0  0  0  0  0  0  0  0  0  0  0  0
    2.4474   -5.3983    0.0000 F   0  0  0  0  0  0  0  0  0  0  0  0
    1.0884   -4.9567    0.0000 C   0  0  0  0  0  0  0  0  0  0  0  0
    0.8334   -5.7414    0.0000 C   0  0  0  0  0  0  0  0  0  0  0  0
    1.3855   -6.3545    0.0000 C   0  0  0  0  0  0  0  0  0  0  0  0
    1.1305   -7.1391    0.0000 C   0  0  0  0  0  0  0  0  0  0  0  0
    0.3236   -7.3106    0.0000 C   0  0  0  0  0  0  0  0  0  0  0  0
   -0.2285   -6.6975    0.0000 C   0  0  0  0  0  0  0  0  0  0  0  0
   -1.0354   -6.8690    0.0000 F   0  0  0  0  0  0  0  0  0  0  0  0
    0.0265   -5.9129    0.0000 C   0  0  0  0  0  0  0  0  0  0  0  0
    0.5363   -4.3437    0.0000 C   0  0  0  0  0  0  0  0  0  0  0  0
   -0.2706   -4.5152    0.0000 F   0  0  0  0  0  0  0  0  0  0  0  0
    0.7913   -3.5590    0.0000 C   0  0  0  0  0  0  0  0  0  0  0  0
  1  2  2  0  0  0  0
  2  3  1  0  0  0  0
  3  4  4  0  0  0  0
  4  5  4  0  0  0  0
  5  6  4  0  0  0  0
  6  7  4  0  0  0  0
  7  8  4  0  0  0  0
  3  8  4  0  0  0  0
  8  9  1  0  0  0  0
  9 10  2  0  0  0  0
  9 11  1  0  0  0  0
 11 12  4  0  0  0  0
  2 12  1  0  0  0  0
 12 13  4  0  0  0  0
 13 14  4  0  0  0  0
 14 15  4  0  0  0  0
 11 15  4  0  0  0  0
 15 16  1  0  0  0  0
 16 17  4  0  0  0  0
 17 18  4  0  0  0  0
 18 19  1  0  0  0  0
 18 20  4  0  0  0  0
 20 21  1  0  0  0  0
 21 22  4  0  0  0  0
 22 23  4  0  0  0  0
 23 24  4  0  0  0  0
 24 25  4  0  0  0  0
 25 26  1  0  0  0  0
 25 27  4  0  0  0  0
 21 27  4  0  0  0  0
 20 28  4  0  0  0  0
 28 29  1  0  0  0  0
 28 30  4  0  0  0  0
 16 30  4  0  0  0  0
M  END
> <IC50(uM)>
0.0027

> <Outcome>
1.0

> <BindingDB ID>
51338200

> <BindingDB MonomerID>
50541674

> <BindingDB Ligand Name>
CHEMBL4645385

> <Curation/DataSource>
ChEMBL

> <Article DOI>
10.1021/acs.jmedchem.0c00512

> <PMID>
32496056

> <Patent Number>
?

> <Authors>
Zuo, Z; Liu, X; Qian, X; Zeng, T; Sang, N; Liu, H; Zhou, Y; Tao, L; Zhou, X; Su, N; Yu, Y; Chen, Q; Luo, Y; Zhao, Y

> <Link to Ligand in BindingDB>
http://www.bindingdb.org/bind/chemsearch/marvin/MolStructure.jsp?monomerid=50541674

> <Link to Ligand-Target Pair in BindingDB>
http://www.bindingdb.org/jsp/dbsearch/PrimarySearch_ki.jsp?energyterm=kJ/mole&tag=r21&monomerid=50541674&enzyme=Dihydroorotate+dehydrogenase&column=ki&startPg=0&Increment=50&submit=Search

> <PubChem CID>
156018993

> <PubChem SID>
442143237

$$$$

  Mrv2115 07222212352D          

 25 27  0  0  0  0            999 V2000
   -0.7145    1.2375    0.0000 C   0  0  0  0  0  0  0  0  0  0  0  0
    0.0000    0.8250    0.0000 C   0  0  0  0  0  0  0  0  0  0  0  0
    0.0000   -0.0000    0.0000 O   0  0  0  0  0  0  0  0  0  0  0  0
    0.7145   -0.4125    0.0000 C   0  0  0  0  0  0  0  0  0  0  0  0
    1.4289   -0.0000    0.0000 O   0  0  0  0  0  0  0  0  0  0  0  0
    0.7145   -1.2375    0.0000 C   0  0  0  0  0  0  0  0  0  0  0  0
    1.3819   -1.7224    0.0000 S   0  0  0  0  0  0  0  0  0  0  0  0
    1.1270   -2.5070    0.0000 C   0  0  0  0  0  0  0  0  0  0  0  0
    1.6119   -3.1745    0.0000 N   0  0  0  0  0  0  0  0  0  0  0  0
    1.2763   -3.9282    0.0000 C   0  0  0  0  0  0  0  0  0  0  0  0
    1.7613   -4.5956    0.0000 C   0  0  0  0  0  0  0  0  0  0  0  0
    1.4257   -5.3493    0.0000 C   0  0  0  0  0  0  0  0  0  0  0  0
    0.6052   -5.4355    0.0000 C   0  0  0  0  0  0  0  0  0  0  0  0
    0.2697   -6.1892    0.0000 Cl  0  0  0  0  0  0  0  0  0  0  0  0
    0.1203   -4.7681    0.0000 C   0  0  0  0  0  0  0  0  0  0  0  0
   -0.7002   -4.8543    0.0000 Cl  0  0  0  0  0  0  0  0  0  0  0  0
    0.4559   -4.0144    0.0000 C   0  0  0  0  0  0  0  0  0  0  0  0
    0.3020   -2.5070    0.0000 N   0  0  0  0  0  0  0  0  0  0  0  0
    0.0470   -1.7224    0.0000 C   0  0  0  0  0  0  0  0  0  0  0  0
   -0.7376   -1.4675    0.0000 C   0  0  0  0  0  0  0  0  0  0  0  0
   -1.3507   -2.0195    0.0000 C   0  0  0  0  0  0  0  0  0  0  0  0
   -2.1353   -1.7646    0.0000 C   0  0  0  0  0  0  0  0  0  0  0  0
   -2.3068   -0.9576    0.0000 C   0  0  0  0  0  0  0  0  0  0  0  0
   -1.6937   -0.4056    0.0000 C   0  0  0  0  0  0  0  0  0  0  0  0
   -0.9091   -0.6605    0.0000 C   0  0  0  0  0  0  0  0  0  0  0  0
  1  2  1  0  0  0  0
  2  3  1  0  0  0  0
  3  4  1  0  0  0  0
  4  5  2  0  0  0  0
  4  6  1  0  0  0  0
  6  7  4  0  0  0  0
  7  8  4  0  0  0  0
  8  9  1  0  0  0  0
  9 10  1  0  0  0  0
 10 11  4  0  0  0  0
 11 12  4  0  0  0  0
 12 13  4  0  0  0  0
 13 14  1  0  0  0  0
 13 15  4  0  0  0  0
 15 16  1  0  0  0  0
 15 17  4  0  0  0  0
 10 17  4  0  0  0  0
  8 18  4  0  0  0  0
 18 19  4  0  0  0  0
  6 19  4  0  0  0  0
 19 20  1  0  0  0  0
 20 21  4  0  0  0  0
 21 22  4  0  0  0  0
 22 23  4  0  0  0  0
 23 24  4  0  0  0  0
 24 25  4  0  0  0  0
 20 25  4  0  0  0  0
M  END
> <IC50(uM)>
0.174

> <Outcome>
1.0

> <BindingDB ID>
50312261

> <BindingDB MonomerID>
50071599

> <BindingDB Ligand Name>
CHEMBL3410604

> <Curation/DataSource>
ChEMBL

> <Article DOI>
10.1021/jm501127s

> <PMID>
25580811

> <Patent Number>
?

> <Authors>
Zhu, J; Han, L; Diao, Y; Ren, X; Xu, M; Xu, L; Li, S; Li, Q; Dong, D; Huang, J; Liu, X; Zhao, Z; Wang, R; Zhu, L; Xu, Y; Qian, X; Li, H

> <Link to Ligand in BindingDB>
http://www.bindingdb.org/bind/chemsearch/marvin/MolStructure.jsp?monomerid=50071599

> <Link to Ligand-Target Pair in BindingDB>
http://www.bindingdb.org/jsp/dbsearch/PrimarySearch_ki.jsp?energyterm=kJ/mole&tag=r21&monomerid=50071599&enzyme=Dihydroorotate+dehydrogenase&column=ki&startPg=0&Increment=50&submit=Search

> <PubChem CID>
118732515

> <PubChem SID>
313072546

$$$$

  Mrv2115 07222212352D          

 25 28  0  0  0  0            999 V2000
    4.0668    2.3479    0.0000 C   0  0  0  0  0  0  0  0  0  0  0  0
    3.3523    1.9354    0.0000 C   0  0  0  0  0  0  0  0  0  0  0  0
    3.3523    1.1104    0.0000 C   0  0  0  0  0  0  0  0  0  0  0  0
    2.6378    0.6979    0.0000 C   0  0  0  0  0  0  0  0  0  0  0  0
    2.6378   -0.1271    0.0000 C   0  0  0  0  0  0  0  0  0  0  0  0
    1.9233   -0.5396    0.0000 N   0  0  0  0  0  0  0  0  0  0  0  0
    3.3523   -0.5396    0.0000 O   0  0  0  0  0  0  0  0  0  0  0  0
    1.9233    1.1104    0.0000 C   0  0  0  0  0  0  0  0  0  0  0  0
    1.1387    0.8555    0.0000 N   0  0  0  0  0  0  0  0  0  0  0  0
    0.6538    1.5229    0.0000 C   0  0  0  0  0  0  0  0  0  0  0  0
   -0.1712    1.5229    0.0000 C   0  0  0  0  0  0  0  0  0  0  0  0
   -0.5837    0.8085    0.0000 C   0  0  0  0  0  0  0  0  0  0  0  0
   -1.4087    0.8085    0.0000 C   0  0  0  0  0  0  0  0  0  0  0  0
   -1.8212    1.5229    0.0000 C   0  0  0  0  0  0  0  0  0  0  0  0
   -2.6462    1.5229    0.0000 C   0  0  0  0  0  0  0  0  0  0  0  0
   -3.0587    0.8085    0.0000 C   0  0  0  0  0  0  0  0  0  0  0  0
   -3.8837    0.8085    0.0000 C   0  0  0  0  0  0  0  0  0  0  0  0
   -4.2962    1.5229    0.0000 C   0  0  0  0  0  0  0  0  0  0  0  0
   -3.8837    2.2374    0.0000 C   0  0  0  0  0  0  0  0  0  0  0  0
   -3.0587    2.2374    0.0000 C   0  0  0  0  0  0  0  0  0  0  0  0
   -1.4087    2.2374    0.0000 C   0  0  0  0  0  0  0  0  0  0  0  0
   -0.5837    2.2374    0.0000 C   0  0  0  0  0  0  0  0  0  0  0  0
    1.1387    2.1904    0.0000 N   0  0  0  0  0  0  0  0  0  0  0  0
    1.9233    1.9354    0.0000 C   0  0  0  0  0  0  0  0  0  0  0  0
    2.6378    2.3479    0.0000 C   0  0  0  0  0  0  0  0  0  0  0  0
  1  2  1  0  0  0  0
  2  3  4  0  0  0  0
  3  4  4  0  0  0  0
  4  5  1  0  0  0  0
  5  6  1  0  0  0  0
  5  7  2  0  0  0  0
  4  8  4  0  0  0  0
  8  9  4  0  0  0  0
  9 10  4  0  0  0  0
 10 11  1  0  0  0  0
 11 12  4  0  0  0  0
 12 13  4  0  0  0  0
 13 14  4  0  0  0  0
 14 15  1  0  0  0  0
 15 16  4  0  0  0  0
 16 17  4  0  0  0  0
 17 18  4  0  0  0  0
 18 19  4  0  0  0  0
 19 20  4  0  0  0  0
 15 20  4  0  0  0  0
 14 21  4  0  0  0  0
 21 22  4  0  0  0  0
 11 22  4  0  0  0  0
 10 23  4  0  0  0  0
 23 24  4  0  0  0  0
  8 24  4  0  0  0  0
 24 25  4  0  0  0  0
  2 25  4  0  0  0  0
M  STY  1   1 DAT
M  SAL   1  1  23
M  SDT   1 MRV_IMPLICIT_H                                        
M  SDD   1     0.5304   -0.4125    DR    ALL  0       0  
M  SED   1 IMPL_H1
M  END
> <IC50(uM)>
7.8

> <Outcome>
0.0

> <BindingDB ID>
50358211

> <BindingDB MonomerID>
50096202

> <BindingDB Ligand Name>
CHEMBL3593808

> <Curation/DataSource>
ChEMBL

> <Article DOI>
10.1016/j.bmc.2015.05.051

> <PMID>
26088338

> <Patent Number>
?

> <Authors>
Abdullah, I; Chee, CF; Lee, YK; Thunuguntla, SS; Satish Reddy, K; Nellore, K; Antony, T; Verma, J; Mun, KW; Othman, S; Subramanya, H; Rahman, NA

> <Link to Ligand in BindingDB>
http://www.bindingdb.org/bind/chemsearch/marvin/MolStructure.jsp?monomerid=50096202

> <Link to Ligand-Target Pair in BindingDB>
http://www.bindingdb.org/jsp/dbsearch/PrimarySearch_ki.jsp?energyterm=kJ/mole&tag=r21&monomerid=50096202&enzyme=Dihydroorotate+dehydrogenase&column=ki&startPg=0&Increment=50&submit=Search

> <PubChem CID>
122182183

> <PubChem SID>
103993769

$$$$

  Mrv2115 07222212352D          

 27 31  0  0  0  0            999 V2000
    3.3523   -0.2854    0.0000 O   0  0  0  0  0  0  0  0  0  0  0  0
    3.3523   -1.1104    0.0000 C   0  0  0  0  0  0  0  0  0  0  0  0
    4.0668   -1.5229    0.0000 C   0  0  0  0  0  0  0  0  0  0  0  0
    4.7812   -1.1104    0.0000 C   0  0  0  0  0  0  0  0  0  0  0  0
    5.4957   -1.5229    0.0000 C   0  0  0  0  0  0  0  0  0  0  0  0
    5.4957   -2.3479    0.0000 C   0  0  0  0  0  0  0  0  0  0  0  0
    4.7812   -2.7604    0.0000 C   0  0  0  0  0  0  0  0  0  0  0  0
    4.0668   -2.3479    0.0000 C   0  0  0  0  0  0  0  0  0  0  0  0
    3.3523   -2.7604    0.0000 C   0  0  0  0  0  0  0  0  0  0  0  0
    3.3523   -3.5854    0.0000 O   0  0  0  0  0  0  0  0  0  0  0  0
    2.6378   -2.3479    0.0000 C   0  0  0  0  0  0  0  0  0  0  0  0
    2.6378   -1.5229    0.0000 C   0  0  0  0  0  0  0  0  0  0  0  0
    1.8532   -1.2680    0.0000 N   0  0  0  0  0  0  0  0  0  0  0  0
    1.3683   -1.9354    0.0000 N   0  0  0  0  0  0  0  0  0  0  0  0
    1.8532   -2.6029    0.0000 N   0  0  0  0  0  0  0  0  0  0  0  0
    1.5983   -3.3875    0.0000 C   0  0  0  0  0  0  0  0  0  0  0  0
    2.1503   -4.0006    0.0000 C   0  0  0  0  0  0  0  0  0  0  0  0
    1.8953   -4.7852    0.0000 C   0  0  0  0  0  0  0  0  0  0  0  0
    1.0884   -4.9567    0.0000 C   0  0  0  0  0  0  0  0  0  0  0  0
    0.8334   -5.7414    0.0000 C   0  0  0  0  0  0  0  0  0  0  0  0
    1.3855   -6.3545    0.0000 C   0  0  0  0  0  0  0  0  0  0  0  0
    1.1305   -7.1391    0.0000 C   0  0  0  0  0  0  0  0  0  0  0  0
    0.3236   -7.3106    0.0000 C   0  0  0  0  0  0  0  0  0  0  0  0
   -0.2285   -6.6975    0.0000 C   0  0  0  0  0  0  0  0  0  0  0  0
    0.0265   -5.9129    0.0000 C   0  0  0  0  0  0  0  0  0  0  0  0
    0.5363   -4.3437    0.0000 C   0  0  0  0  0  0  0  0  0  0  0  0
    0.7913   -3.5590    0.0000 C   0  0  0  0  0  0  0  0  0  0  0  0
  1  2  2  0  0  0  0
  2  3  1  0  0  0  0
  3  4  4  0  0  0  0
  4  5  4  0  0  0  0
  5  6  4  0  0  0  0
  6  7  4  0  0  0  0
  7  8  4  0  0  0  0
  3  8  4  0  0  0  0
  8  9  1  0  0  0  0
  9 10  2  0  0  0  0
  9 11  1  0  0  0  0
 11 12  4  0  0  0  0
  2 12  1  0  0  0  0
 12 13  4  0  0  0  0
 13 14  4  0  0  0  0
 14 15  4  0  0  0  0
 11 15  4  0  0  0  0
 15 16  1  0  0  0  0
 16 17  4  0  0  0  0
 17 18  4  0  0  0  0
 18 19  4  0  0  0  0
 19 20  1  0  0  0  0
 20 21  4  0  0  0  0
 21 22  4  0  0  0  0
 22 23  4  0  0  0  0
 23 24  4  0  0  0  0
 24 25  4  0  0  0  0
 20 25  4  0  0  0  0
 19 26  4  0  0  0  0
 26 27  4  0  0  0  0
 16 27  4  0  0  0  0
M  END
> <IC50(uM)>
0.019

> <Outcome>
1.0

> <BindingDB ID>
51338179

> <BindingDB MonomerID>
50541653

> <BindingDB Ligand Name>
CHEMBL4640115

> <Curation/DataSource>
ChEMBL

> <Article DOI>
10.1021/acs.jmedchem.0c00512

> <PMID>
32496056

> <Patent Number>
?

> <Authors>
Zuo, Z; Liu, X; Qian, X; Zeng, T; Sang, N; Liu, H; Zhou, Y; Tao, L; Zhou, X; Su, N; Yu, Y; Chen, Q; Luo, Y; Zhao, Y

> <Link to Ligand in BindingDB>
http://www.bindingdb.org/bind/chemsearch/marvin/MolStructure.jsp?monomerid=50541653

> <Link to Ligand-Target Pair in BindingDB>
http://www.bindingdb.org/jsp/dbsearch/PrimarySearch_ki.jsp?energyterm=kJ/mole&tag=r21&monomerid=50541653&enzyme=Dihydroorotate+dehydrogenase&column=ki&startPg=0&Increment=50&submit=Search

> <PubChem CID>
156014775

> <PubChem SID>
442143216

$$$$

  Mrv2115 07222212352D          

 18 20  0  0  0  0            999 V2000
    3.2789    2.0625    0.0000 O   0  0  0  0  0  0  0  0  0  0  0  0
    3.2789    1.2375    0.0000 C   0  0  0  0  0  0  0  0  0  0  0  0
    3.9934    0.8250    0.0000 N   0  0  0  0  0  0  0  0  0  0  0  0
    3.9934    0.0000    0.0000 C   0  0  0  0  0  0  0  0  0  0  0  0
    4.7079   -0.4125    0.0000 C   0  0  0  0  0  0  0  0  0  0  0  0
    5.4223    0.0000    0.0000 C   0  0  0  0  0  0  0  0  0  0  0  0
    5.4223    0.8250    0.0000 C   0  0  0  0  0  0  0  0  0  0  0  0
    6.1368    1.2375    0.0000 C   0  0  0  0  0  0  0  0  0  0  0  0
    6.8513    0.8250    0.0000 C   0  0  0  0  0  0  0  0  0  0  0  0
    6.8513    0.0000    0.0000 C   0  0  0  0  0  0  0  0  0  0  0  0
    6.1368   -0.4125    0.0000 C   0  0  0  0  0  0  0  0  0  0  0  0
    3.2789   -0.4125    0.0000 C   0  0  0  0  0  0  0  0  0  0  0  0
    3.2789   -1.2375    0.0000 O   0  0  0  0  0  0  0  0  0  0  0  0
    2.5645    0.0000    0.0000 N   0  0  0  0  0  0  0  0  0  0  0  0
    1.7798   -0.2549    0.0000 C   0  0  0  0  0  0  0  0  0  0  0  0
    1.2949    0.4125    0.0000 C   0  0  0  0  0  0  0  0  0  0  0  0
    1.7798    1.0799    0.0000 C   0  0  0  0  0  0  0  0  0  0  0  0
    2.5645    0.8250    0.0000 C   0  0  0  0  0  0  0  0  0  0  0  0
  1  2  2  0  0  0  0
  2  3  1  0  0  0  0
  3  4  1  0  0  0  0
  4  5  1  0  0  0  0
  5  6  1  0  0  0  0
  6  7  4  0  0  0  0
  7  8  4  0  0  0  0
  8  9  4  0  0  0  0
  9 10  4  0  0  0  0
 10 11  4  0  0  0  0
  6 11  4  0  0  0  0
  4 12  1  0  0  0  0
 12 13  2  0  0  0  0
 12 14  1  0  0  0  0
 14 15  1  0  0  0  0
 15 16  1  0  0  0  0
 16 17  1  0  0  0  0
 17 18  1  0  0  0  0
  2 18  1  0  0  0  0
 14 18  1  0  0  0  0
M  END
> <IC50(uM)>
50.0

> <Outcome>
0.0

> <BindingDB ID>
306825

> <BindingDB MonomerID>
163710

> <BindingDB Ligand Name>
Cyclo L-Pro-L-Phe (Fr. 2-2)

> <Curation/DataSource>
Curated from the literature by BindingDB

> <Article DOI>
10.1111/cbdd.12530

> <PMID>
25626527

> <Patent Number>
?

> <Authors>
Jiang, L; Wen, H; Shao, Y; Yu, R; Liu, Z; Wang, S; Wang, Q; Zhao, X; Zhang, P; Tao, Y; Mei, L

> <Link to Ligand in BindingDB>
http://www.bindingdb.org/bind/chemsearch/marvin/MolStructure.jsp?monomerid=163710

> <Link to Ligand-Target Pair in BindingDB>
http://www.bindingdb.org/jsp/dbsearch/PrimarySearch_ki.jsp?energyterm=kJ/mole&tag=r21&monomerid=163710&enzyme=Dihydroorotate+dehydrogenase&column=ki&startPg=0&Increment=50&submit=Search

> <PubChem CID>
443440

> <PubChem SID>
311419061

$$$$

  Mrv2115 07222212352D          

 30 34  0  0  0  0            999 V2000
    3.9934    2.4750    0.0000 N   0  0  0  0  0  0  0  0  0  0  0  0
    3.2789    2.0625    0.0000 C   0  0  0  0  0  0  0  0  0  0  0  0
    2.5645    2.4750    0.0000 O   0  0  0  0  0  0  0  0  0  0  0  0
    3.2789    1.2375    0.0000 C   0  0  0  0  0  0  0  0  0  0  0  0
    3.9934    0.8250    0.0000 C   0  0  0  0  0  0  0  0  0  0  0  0
    3.9934    0.0000    0.0000 C   0  0  0  0  0  0  0  0  0  0  0  0
    3.2789   -0.4125    0.0000 C   0  0  0  0  0  0  0  0  0  0  0  0
    2.5645    0.0000    0.0000 C   0  0  0  0  0  0  0  0  0  0  0  0
    1.7798   -0.2549    0.0000 N   0  0  0  0  0  0  0  0  0  0  0  0
    1.2949    0.4125    0.0000 C   0  0  0  0  0  0  0  0  0  0  0  0
    0.4699    0.4125    0.0000 C   0  0  0  0  0  0  0  0  0  0  0  0
    0.0574   -0.3020    0.0000 C   0  0  0  0  0  0  0  0  0  0  0  0
   -0.7676   -0.3020    0.0000 C   0  0  0  0  0  0  0  0  0  0  0  0
   -1.1801    0.4125    0.0000 C   0  0  0  0  0  0  0  0  0  0  0  0
   -2.0051    0.4125    0.0000 C   0  0  0  0  0  0  0  0  0  0  0  0
   -2.4176   -0.3020    0.0000 C   0  0  0  0  0  0  0  0  0  0  0  0
   -3.2426   -0.3020    0.0000 N   0  0  0  0  0  0  0  0  0  0  0  0
   -3.6551    0.4125    0.0000 C   0  0  0  0  0  0  0  0  0  0  0  0
   -3.2426    1.1270    0.0000 C   0  0  0  0  0  0  0  0  0  0  0  0
   -3.6551    1.8414    0.0000 C   0  0  0  0  0  0  0  0  0  0  0  0
   -3.2426    2.5559    0.0000 N   0  0  0  0  0  0  0  0  0  0  0  0
   -3.5781    3.3096    0.0000 C   0  0  0  0  0  0  0  0  0  0  0  0
   -2.9651    3.8616    0.0000 C   0  0  0  0  0  0  0  0  0  0  0  0
   -2.2506    3.4491    0.0000 C   0  0  0  0  0  0  0  0  0  0  0  0
   -2.4221    2.6421    0.0000 C   0  0  0  0  0  0  0  0  0  0  0  0
   -2.4176    1.1270    0.0000 C   0  0  0  0  0  0  0  0  0  0  0  0
   -0.7676    1.1270    0.0000 C   0  0  0  0  0  0  0  0  0  0  0  0
    0.0574    1.1270    0.0000 C   0  0  0  0  0  0  0  0  0  0  0  0
    1.7798    1.0799    0.0000 N   0  0  0  0  0  0  0  0  0  0  0  0
    2.5645    0.8250    0.0000 C   0  0  0  0  0  0  0  0  0  0  0  0
  1  2  1  0  0  0  0
  2  3  2  0  0  0  0
  2  4  1  0  0  0  0
  4  5  4  0  0  0  0
  5  6  4  0  0  0  0
  6  7  4  0  0  0  0
  7  8  4  0  0  0  0
  8  9  4  0  0  0  0
  9 10  4  0  0  0  0
 10 11  1  0  0  0  0
 11 12  4  0  0  0  0
 12 13  4  0  0  0  0
 13 14  4  0  0  0  0
 14 15  1  0  0  0  0
 15 16  4  0  0  0  0
 16 17  4  0  0  0  0
 17 18  4  0  0  0  0
 18 19  4  0  0  0  0
 19 20  1  0  0  0  0
 20 21  1  0  0  0  0
 21 22  1  0  0  0  0
 22 23  1  0  0  0  0
 23 24  1  0  0  0  0
 24 25  1  0  0  0  0
 21 25  1  0  0  0  0
 19 26  4  0  0  0  0
 15 26  4  0  0  0  0
 14 27  4  0  0  0  0
 27 28  4  0  0  0  0
 11 28  4  0  0  0  0
 10 29  4  0  0  0  0
 29 30  4  0  0  0  0
  4 30  4  0  0  0  0
  8 30  4  0  0  0  0
M  STY  1   1 DAT
M  SAL   1  1   9
M  SDT   1 MRV_IMPLICIT_H                                        
M  SDD   1     0.5304   -0.4125    DR    ALL  0       0  
M  SED   1 IMPL_H1
M  END
> <IC50(uM)>
55.0

> <Outcome>
0.0

> <BindingDB ID>
50358223

> <BindingDB MonomerID>
50096146

> <BindingDB Ligand Name>
CHEMBL3593990

> <Curation/DataSource>
ChEMBL

> <Article DOI>
10.1016/j.bmc.2015.05.051

> <PMID>
26088338

> <Patent Number>
?

> <Authors>
Abdullah, I; Chee, CF; Lee, YK; Thunuguntla, SS; Satish Reddy, K; Nellore, K; Antony, T; Verma, J; Mun, KW; Othman, S; Subramanya, H; Rahman, NA

> <Link to Ligand in BindingDB>
http://www.bindingdb.org/bind/chemsearch/marvin/MolStructure.jsp?monomerid=50096146

> <Link to Ligand-Target Pair in BindingDB>
http://www.bindingdb.org/jsp/dbsearch/PrimarySearch_ki.jsp?energyterm=kJ/mole&tag=r21&monomerid=50096146&enzyme=Dihydroorotate+dehydrogenase&column=ki&startPg=0&Increment=50&submit=Search

> <PubChem CID>
122182318

> <PubChem SID>
318473799

$$$$

  Mrv2115 07222212352D          

 27 30  0  0  0  0            999 V2000
   -0.7112   -6.5868    0.0000 C   0  0  0  0  0  0  0  0  0  0  0  0
   -1.0468   -5.8331    0.0000 C   0  0  0  0  0  0  0  0  0  0  0  0
   -0.5619   -5.1657    0.0000 O   0  0  0  0  0  0  0  0  0  0  0  0
   -0.8974   -4.4120    0.0000 C   0  0  0  0  0  0  0  0  0  0  0  0
   -1.7179   -4.3257    0.0000 O   0  0  0  0  0  0  0  0  0  0  0  0
   -0.4125   -3.7445    0.0000 C   0  0  0  0  0  0  0  0  0  0  0  0
   -0.6674   -2.9599    0.0000 S   0  0  0  0  0  0  0  0  0  0  0  0
    0.0000   -2.4750    0.0000 C   0  0  0  0  0  0  0  0  0  0  0  0
    0.0000   -1.6500    0.0000 N   0  0  0  0  0  0  0  0  0  0  0  0
    0.7145   -1.2375    0.0000 C   0  0  0  0  0  0  0  0  0  0  0  0
    0.7145   -0.4125    0.0000 C   0  0  0  0  0  0  0  0  0  0  0  0
    1.4289    0.0000    0.0000 C   0  0  0  0  0  0  0  0  0  0  0  0
    2.1434   -0.4125    0.0000 C   0  0  0  0  0  0  0  0  0  0  0  0
    2.8579    0.0000    0.0000 C   0  0  0  0  0  0  0  0  0  0  0  0
    3.5724   -0.4125    0.0000 C   0  0  0  0  0  0  0  0  0  0  0  0
    3.5724   -1.2375    0.0000 C   0  0  0  0  0  0  0  0  0  0  0  0
    2.8579   -1.6500    0.0000 C   0  0  0  0  0  0  0  0  0  0  0  0
    2.1434   -1.2375    0.0000 C   0  0  0  0  0  0  0  0  0  0  0  0
    1.4289   -1.6500    0.0000 C   0  0  0  0  0  0  0  0  0  0  0  0
    0.6674   -2.9599    0.0000 N   0  0  0  0  0  0  0  0  0  0  0  0
    0.4125   -3.7445    0.0000 C   0  0  0  0  0  0  0  0  0  0  0  0
    0.8974   -4.4120    0.0000 C   0  0  0  0  0  0  0  0  0  0  0  0
    1.7179   -4.3257    0.0000 C   0  0  0  0  0  0  0  0  0  0  0  0
    2.2028   -4.9932    0.0000 C   0  0  0  0  0  0  0  0  0  0  0  0
    1.8673   -5.7469    0.0000 C   0  0  0  0  0  0  0  0  0  0  0  0
    1.0468   -5.8331    0.0000 C   0  0  0  0  0  0  0  0  0  0  0  0
    0.5619   -5.1657    0.0000 C   0  0  0  0  0  0  0  0  0  0  0  0
  1  2  1  0  0  0  0
  2  3  1  0  0  0  0
  3  4  1  0  0  0  0
  4  5  2  0  0  0  0
  4  6  1  0  0  0  0
  6  7  4  0  0  0  0
  7  8  4  0  0  0  0
  8  9  1  0  0  0  0
  9 10  1  0  0  0  0
 10 11  4  0  0  0  0
 11 12  4  0  0  0  0
 12 13  4  0  0  0  0
 13 14  4  0  0  0  0
 14 15  4  0  0  0  0
 15 16  4  0  0  0  0
 16 17  4  0  0  0  0
 17 18  4  0  0  0  0
 13 18  4  0  0  0  0
 18 19  4  0  0  0  0
 10 19  4  0  0  0  0
  8 20  4  0  0  0  0
 20 21  4  0  0  0  0
  6 21  4  0  0  0  0
 21 22  1  0  0  0  0
 22 23  4  0  0  0  0
 23 24  4  0  0  0  0
 24 25  4  0  0  0  0
 25 26  4  0  0  0  0
 26 27  4  0  0  0  0
 22 27  4  0  0  0  0
M  END
> <IC50(uM)>
0.029

> <Outcome>
1.0

> <BindingDB ID>
50312490

> <BindingDB MonomerID>
50071797

> <BindingDB Ligand Name>
CHEMBL3410610

> <Curation/DataSource>
ChEMBL

> <Article DOI>
10.1021/jm501127s

> <PMID>
25580811

> <Patent Number>
?

> <Authors>
Zhu, J; Han, L; Diao, Y; Ren, X; Xu, M; Xu, L; Li, S; Li, Q; Dong, D; Huang, J; Liu, X; Zhao, Z; Wang, R; Zhu, L; Xu, Y; Qian, X; Li, H

> <Link to Ligand in BindingDB>
http://www.bindingdb.org/bind/chemsearch/marvin/MolStructure.jsp?monomerid=50071797

> <Link to Ligand-Target Pair in BindingDB>
http://www.bindingdb.org/jsp/dbsearch/PrimarySearch_ki.jsp?energyterm=kJ/mole&tag=r21&monomerid=50071797&enzyme=Dihydroorotate+dehydrogenase&column=ki&startPg=0&Increment=50&submit=Search

> <PubChem CID>
3100461

> <PubChem SID>
103965507

$$$$

  Mrv2115 07222212352D          

 25 28  0  0  0  0            999 V2000
    2.1434   -2.8875    0.0000 O   0  0  0  0  0  0  0  0  0  0  0  0
    1.4289   -2.4750    0.0000 C   0  0  0  0  0  0  0  0  0  0  0  0
    0.7145   -2.8875    0.0000 O   0  0  0  0  0  0  0  0  0  0  0  0
    1.4289   -1.6500    0.0000 C   0  0  0  0  0  0  0  0  0  0  0  0
    0.7145   -1.2375    0.0000 C   0  0  0  0  0  0  0  0  0  0  0  0
    0.7145   -0.4125    0.0000 C   0  0  0  0  0  0  0  0  0  0  0  0
    0.0000    0.0000    0.0000 C   0  0  0  0  0  0  0  0  0  0  0  0
   -0.7145   -0.4125    0.0000 C   0  0  0  0  0  0  0  0  0  0  0  0
   -1.4289    0.0000    0.0000 C   0  0  0  0  0  0  0  0  0  0  0  0
   -1.4289    0.8250    0.0000 C   0  0  0  0  0  0  0  0  0  0  0  0
   -2.1434    1.2375    0.0000 C   0  0  0  0  0  0  0  0  0  0  0  0
   -2.8579    0.8250    0.0000 C   0  0  0  0  0  0  0  0  0  0  0  0
   -3.5724    1.2375    0.0000 C   0  0  0  0  0  0  0  0  0  0  0  0
   -3.5724    2.0625    0.0000 C   0  0  0  0  0  0  0  0  0  0  0  0
   -2.8579    2.4750    0.0000 C   0  0  0  0  0  0  0  0  0  0  0  0
   -2.1434    2.0625    0.0000 C   0  0  0  0  0  0  0  0  0  0  0  0
   -0.7145    1.2375    0.0000 C   0  0  0  0  0  0  0  0  0  0  0  0
    0.0000    0.8250    0.0000 C   0  0  0  0  0  0  0  0  0  0  0  0
    1.4289    0.0000    0.0000 N   0  0  0  0  0  0  0  0  0  0  0  0
    2.1434   -0.4125    0.0000 C   0  0  0  0  0  0  0  0  0  0  0  0
    2.8579    0.0000    0.0000 C   0  0  0  0  0  0  0  0  0  0  0  0
    3.5724   -0.4125    0.0000 C   0  0  0  0  0  0  0  0  0  0  0  0
    3.5724   -1.2375    0.0000 C   0  0  0  0  0  0  0  0  0  0  0  0
    2.8579   -1.6500    0.0000 C   0  0  0  0  0  0  0  0  0  0  0  0
    2.1434   -1.2375    0.0000 C   0  0  0  0  0  0  0  0  0  0  0  0
  1  2  2  0  0  0  0
  2  3  1  0  0  0  0
  2  4  1  0  0  0  0
  4  5  4  0  0  0  0
  5  6  4  0  0  0  0
  6  7  1  0  0  0  0
  7  8  4  0  0  0  0
  8  9  4  0  0  0  0
  9 10  4  0  0  0  0
 10 11  1  0  0  0  0
 11 12  1  0  0  0  0
 12 13  1  0  0  0  0
 13 14  1  0  0  0  0
 14 15  1  0  0  0  0
 15 16  1  0  0  0  0
 11 16  1  0  0  0  0
 10 17  4  0  0  0  0
 17 18  4  0  0  0  0
  7 18  4  0  0  0  0
  6 19  4  0  0  0  0
 19 20  4  0  0  0  0
 20 21  4  0  0  0  0
 21 22  4  0  0  0  0
 22 23  4  0  0  0  0
 23 24  4  0  0  0  0
 24 25  4  0  0  0  0
  4 25  4  0  0  0  0
 20 25  4  0  0  0  0
M  END
> <IC50(uM)>
0.25

> <Outcome>
1.0

> <BindingDB ID>
51126168

> <BindingDB MonomerID>
50461855

> <BindingDB Ligand Name>
CHEMBL4226040

> <Curation/DataSource>
ChEMBL

> <Article DOI>
10.1021/acs.jmedchem.7b01862

> <PMID>
29727569

> <Patent Number>
?

> <Authors>
Madak, JT; Cuthbertson, CR; Miyata, Y; Tamura, S; Petrunak, EM; Stuckey, JA; Han, Y; He, M; Sun, D; Showalter, HD; Neamati, N

> <Link to Ligand in BindingDB>
http://www.bindingdb.org/bind/chemsearch/marvin/MolStructure.jsp?monomerid=50461855

> <Link to Ligand-Target Pair in BindingDB>
http://www.bindingdb.org/jsp/dbsearch/PrimarySearch_ki.jsp?energyterm=kJ/mole&tag=r21&monomerid=50461855&enzyme=Dihydroorotate+dehydrogenase&column=ki&startPg=0&Increment=50&submit=Search

> <PubChem CID>
1830299

> <PubChem SID>
433929120

$$$$

  Mrv2115 07222212352D          

 36 38  0  0  0  0            999 V2000
    0.7145   -2.8875    0.0000 C   0  0  0  0  0  0  0  0  0  0  0  0
    0.7145   -3.7125    0.0000 O   0  0  0  0  0  0  0  0  0  0  0  0
    1.4289   -4.1250    0.0000 C   0  0  0  0  0  0  0  0  0  0  0  0
    2.1434   -3.7125    0.0000 C   0  0  0  0  0  0  0  0  0  0  0  0
    1.4289   -4.9500    0.0000 C   0  0  0  0  0  0  0  0  0  0  0  0
    0.7615   -5.4349    0.0000 N   0  0  0  0  0  0  0  0  0  0  0  0
    1.0164   -6.2195    0.0000 N   0  0  0  0  0  0  0  0  0  0  0  0
    0.5315   -6.8870    0.0000 C   0  0  0  0  0  0  0  0  0  0  0  0
    0.8671   -7.6407    0.0000 C   0  0  0  0  0  0  0  0  0  0  0  0
    0.3822   -8.3081    0.0000 C   0  0  0  0  0  0  0  0  0  0  0  0
    0.7177   -9.0618    0.0000 O   0  0  0  0  0  0  0  0  0  0  0  0
    1.5382   -9.1480    0.0000 C   0  0  0  0  0  0  0  0  0  0  0  0
    2.0231   -8.4806    0.0000 C   0  0  0  0  0  0  0  0  0  0  0  0
    1.8738   -9.9017    0.0000 C   0  0  0  0  0  0  0  0  0  0  0  0
    1.1201  -10.2372    0.0000 F   0  0  0  0  0  0  0  0  0  0  0  0
    2.6274   -9.5661    0.0000 F   0  0  0  0  0  0  0  0  0  0  0  0
    2.2093  -10.6554    0.0000 F   0  0  0  0  0  0  0  0  0  0  0  0
   -0.4383   -8.2219    0.0000 C   0  0  0  0  0  0  0  0  0  0  0  0
   -0.9232   -8.8893    0.0000 C   0  0  0  0  0  0  0  0  0  0  0  0
   -1.7437   -8.8031    0.0000 O   0  0  0  0  0  0  0  0  0  0  0  0
   -0.5877   -9.6430    0.0000 N   0  0  0  0  0  0  0  0  0  0  0  0
   -1.0726  -10.3104    0.0000 C   0  0  0  0  0  0  0  0  0  0  0  0
   -0.7371  -11.0641    0.0000 C   0  0  0  0  0  0  0  0  0  0  0  0
    0.0834  -11.1503    0.0000 F   0  0  0  0  0  0  0  0  0  0  0  0
   -1.2220  -11.7315    0.0000 C   0  0  0  0  0  0  0  0  0  0  0  0
   -2.0425  -11.6453    0.0000 C   0  0  0  0  0  0  0  0  0  0  0  0
   -2.3780  -10.8916    0.0000 C   0  0  0  0  0  0  0  0  0  0  0  0
   -1.8931  -10.2242    0.0000 C   0  0  0  0  0  0  0  0  0  0  0  0
   -2.2287   -9.4705    0.0000 F   0  0  0  0  0  0  0  0  0  0  0  0
   -0.7739   -7.4682    0.0000 C   0  0  0  0  0  0  0  0  0  0  0  0
   -0.2890   -6.8007    0.0000 C   0  0  0  0  0  0  0  0  0  0  0  0
   -0.6245   -6.0471    0.0000 F   0  0  0  0  0  0  0  0  0  0  0  0
    1.8414   -6.2195    0.0000 C   0  0  0  0  0  0  0  0  0  0  0  0
    2.3264   -6.8870    0.0000 O   0  0  0  0  0  0  0  0  0  0  0  0
    2.0964   -5.4349    0.0000 N   0  0  0  0  0  0  0  0  0  0  0  0
    2.8810   -5.1800    0.0000 C   0  0  0  0  0  0  0  0  0  0  0  0
  1  2  1  0  0  0  0
  2  3  1  0  0  0  0
  3  4  1  0  0  0  0
  3  5  1  0  0  0  0
  5  6  4  0  0  0  0
  6  7  4  0  0  0  0
  7  8  1  0  0  0  0
  8  9  4  0  0  0  0
  9 10  4  0  0  0  0
 10 11  1  0  0  0  0
 11 12  1  0  0  0  0
 12 13  1  0  0  0  0
 12 14  1  0  0  0  0
 14 15  1  0  0  0  0
 14 16  1  0  0  0  0
 14 17  1  0  0  0  0
 10 18  4  0  0  0  0
 18 19  1  0  0  0  0
 19 20  2  0  0  0  0
 19 21  1  0  0  0  0
 21 22  1  0  0  0  0
 22 23  4  0  0  0  0
 23 24  1  0  0  0  0
 23 25  4  0  0  0  0
 25 26  4  0  0  0  0
 26 27  4  0  0  0  0
 27 28  4  0  0  0  0
 22 28  4  0  0  0  0
 28 29  1  0  0  0  0
 18 30  4  0  0  0  0
 30 31  4  0  0  0  0
  8 31  4  0  0  0  0
 31 32  1  0  0  0  0
  7 33  4  0  0  0  0
 33 34  2  0  0  0  0
 33 35  4  0  0  0  0
  5 35  4  0  0  0  0
 35 36  1  0  0  0  0
M  END
> <IC50(uM)>
0.16

> <Outcome>
1.0

> <BindingDB ID>
1098728; 972574

> <BindingDB MonomerID>
470449

> <BindingDB Ligand Name>
N-(2,6-difluorophenyl)-5-fluoro-4-[3-(1-methoxyethyl)-4-methyl-5-oxo-4,5-dihydro-1H-1,2,4-triazol-1-yl]-2-{[(2S)-1,1,1-trifluoropropan-2-yl]oxy}benzamide, Mixture of Stereoisomers::US10815215, Example 116::US11130745, Example 116; N-(2,6-difluorophenyl)-5-fluoro-4-[3-(1-methoxyethyl)-4-methyl-5-oxo-4,5-dihydro-1H-1,2,4-triazol-1-yl]-2-{[(2S)-1,1,1-trifluoropropan-2-yl]oxy}benzamide, Mixture of Stereoisomers::US10815215, Example 116

> <Curation/DataSource>
US Patent

> <Article DOI>
?

> <PMID>
?

> <Patent Number>
US11130745; US10815215

> <Authors>
Gradl, SN; Nguyen, D; Eis, K; Gunther, J; Stellfeld, T; Janzer, A; Christian, S; Muller, T; Sheikh, SE; Sykes, DB; Ferrara, SJ; Krober, M; Merz, C; Niehues, M; Schafer, M; Zimmermann, K; Nising, CF; Gradl, SN; Nguyen, D; Eis, K; Gunther, J; Stellfeld, T; Janzer, A; Christian, S; Muller, T; Sheikh, SE; Zhou, HJ; Zhao, C; Sykes, DB; Ferrara, SJ; Liu, K; Krober, M; Merz, C; Niehues, M; Schafer, M; Zimmermann, K; Nising, CF

> <Link to Ligand in BindingDB>
http://www.bindingdb.org/bind/chemsearch/marvin/MolStructure.jsp?monomerid=470449

> <Link to Ligand-Target Pair in BindingDB>
http://www.bindingdb.org/jsp/dbsearch/PrimarySearch_ki.jsp?energyterm=kJ/mole&tag=r21&monomerid=470449&enzyme=Dihydroorotate+dehydrogenase&column=ki&startPg=0&Increment=50&submit=Search

> <PubChem CID>
134470097

> <PubChem SID>
441609626

$$$$

  Mrv2115 07222212352D          

 35 38  0  0  0  0            999 V2000
   -1.3222   -2.5366    0.0000 C   0  0  0  0  0  0  0  0  0  0  0  0
   -0.6078   -2.9491    0.0000 C   0  0  0  0  0  0  0  0  0  0  0  0
   -0.6078   -3.7741    0.0000 C   0  0  0  0  0  0  0  0  0  0  0  0
    0.0597   -4.2590    0.0000 N   0  0  0  0  0  0  0  0  0  0  0  0
   -0.1953   -5.0437    0.0000 N   0  0  0  0  0  0  0  0  0  0  0  0
    0.2897   -5.7111    0.0000 C   0  0  0  0  0  0  0  0  0  0  0  0
    1.1101   -5.6249    0.0000 C   0  0  0  0  0  0  0  0  0  0  0  0
    1.5951   -6.2923    0.0000 C   0  0  0  0  0  0  0  0  0  0  0  0
    2.4155   -6.2061    0.0000 O   0  0  0  0  0  0  0  0  0  0  0  0
    2.7511   -5.4524    0.0000 C   0  0  0  0  0  0  0  0  0  0  0  0
    2.2662   -4.7849    0.0000 C   0  0  0  0  0  0  0  0  0  0  0  0
    3.5716   -5.3661    0.0000 C   0  0  0  0  0  0  0  0  0  0  0  0
    3.9071   -4.6125    0.0000 C   0  0  0  0  0  0  0  0  0  0  0  0
    4.7276   -4.5262    0.0000 C   0  0  0  0  0  0  0  0  0  0  0  0
    5.2125   -5.1937    0.0000 C   0  0  0  0  0  0  0  0  0  0  0  0
    4.8770   -5.9473    0.0000 C   0  0  0  0  0  0  0  0  0  0  0  0
    4.0565   -6.0336    0.0000 C   0  0  0  0  0  0  0  0  0  0  0  0
    1.2595   -7.0460    0.0000 C   0  0  0  0  0  0  0  0  0  0  0  0
    1.7444   -7.7134    0.0000 C   0  0  0  0  0  0  0  0  0  0  0  0
    1.4089   -8.4671    0.0000 O   0  0  0  0  0  0  0  0  0  0  0  0
    2.5649   -7.6272    0.0000 N   0  0  0  0  0  0  0  0  0  0  0  0
    3.0498   -8.2946    0.0000 C   0  0  0  0  0  0  0  0  0  0  0  0
    3.8748   -8.2946    0.0000 N   0  0  0  0  0  0  0  0  0  0  0  0
    4.1298   -9.0792    0.0000 N   0  0  0  0  0  0  0  0  0  0  0  0
    4.9144   -9.3342    0.0000 C   0  0  0  0  0  0  0  0  0  0  0  0
    3.4623   -9.5642    0.0000 C   0  0  0  0  0  0  0  0  0  0  0  0
    2.7949   -9.0792    0.0000 C   0  0  0  0  0  0  0  0  0  0  0  0
    2.0103   -9.3342    0.0000 C   0  0  0  0  0  0  0  0  0  0  0  0
    0.4390   -7.1322    0.0000 C   0  0  0  0  0  0  0  0  0  0  0  0
   -0.0459   -6.4648    0.0000 C   0  0  0  0  0  0  0  0  0  0  0  0
   -0.8664   -6.5510    0.0000 F   0  0  0  0  0  0  0  0  0  0  0  0
   -1.0203   -5.0437    0.0000 C   0  0  0  0  0  0  0  0  0  0  0  0
   -1.5052   -5.7111    0.0000 O   0  0  0  0  0  0  0  0  0  0  0  0
   -1.2752   -4.2590    0.0000 N   0  0  0  0  0  0  0  0  0  0  0  0
   -2.0598   -4.0041    0.0000 C   0  0  0  0  0  0  0  0  0  0  0  0
  1  2  1  0  0  0  0
  2  3  1  0  0  0  0
  3  4  4  0  0  0  0
  4  5  4  0  0  0  0
  5  6  1  0  0  0  0
  6  7  4  0  0  0  0
  7  8  4  0  0  0  0
  8  9  1  0  0  0  0
  9 10  1  0  0  0  0
 10 11  1  0  0  0  0
 10 12  1  0  0  0  0
 12 13  1  0  0  0  0
 13 14  1  0  0  0  0
 14 15  1  0  0  0  0
 15 16  1  0  0  0  0
 16 17  1  0  0  0  0
 12 17  1  0  0  0  0
  8 18  4  0  0  0  0
 18 19  1  0  0  0  0
 19 20  2  0  0  0  0
 19 21  1  0  0  0  0
 21 22  1  0  0  0  0
 22 23  4  0  0  0  0
 23 24  4  0  0  0  0
 24 25  1  0  0  0  0
 24 26  4  0  0  0  0
 26 27  4  0  0  0  0
 22 27  4  0  0  0  0
 27 28  1  0  0  0  0
 18 29  4  0  0  0  0
 29 30  4  0  0  0  0
  6 30  4  0  0  0  0
 30 31  1  0  0  0  0
  5 32  4  0  0  0  0
 32 33  2  0  0  0  0
 32 34  4  0  0  0  0
  3 34  4  0  0  0  0
 34 35  1  0  0  0  0
M  END
> <IC50(uM)>
0.028

> <Outcome>
1.0

> <BindingDB ID>
1098811; 972657

> <BindingDB MonomerID>
470535

> <BindingDB Ligand Name>
2-[(1S)-1-cyclohexylethoxy]-N-(1,4-dimethyl-1H-pyrazol-3-yl)-4-(3-ethyl-4-methyl-5-oxo-4,5-dihydro-1H-1,2,4-triazol-1-yl)-5-fluorobenzamide::US10815215, Example 195::US11130745, Example 195; 2-[(1S)-1-cyclohexylethoxy]-N-(1,4-dimethyl-1H-pyrazol-3-yl)-4-(3-ethyl-4-methyl-5-oxo-4,5-dihydro-1H-1,2,4-triazol-1-yl)-5-fluorobenzamide::US10815215, Example 195

> <Curation/DataSource>
US Patent

> <Article DOI>
?

> <PMID>
?

> <Patent Number>
US11130745; US10815215

> <Authors>
Gradl, SN; Nguyen, D; Eis, K; Gunther, J; Stellfeld, T; Janzer, A; Christian, S; Muller, T; Sheikh, SE; Sykes, DB; Ferrara, SJ; Krober, M; Merz, C; Niehues, M; Schafer, M; Zimmermann, K; Nising, CF; Gradl, SN; Nguyen, D; Eis, K; Gunther, J; Stellfeld, T; Janzer, A; Christian, S; Muller, T; Sheikh, SE; Zhou, HJ; Zhao, C; Sykes, DB; Ferrara, SJ; Liu, K; Krober, M; Merz, C; Niehues, M; Schafer, M; Zimmermann, K; Nising, CF

> <Link to Ligand in BindingDB>
http://www.bindingdb.org/bind/chemsearch/marvin/MolStructure.jsp?monomerid=470535

> <Link to Ligand-Target Pair in BindingDB>
http://www.bindingdb.org/jsp/dbsearch/PrimarySearch_ki.jsp?energyterm=kJ/mole&tag=r21&monomerid=470535&enzyme=Dihydroorotate+dehydrogenase&column=ki&startPg=0&Increment=50&submit=Search

> <PubChem CID>
146483796

> <PubChem SID>
441609711

$$$$

  Mrv2115 07222212352D          

 27 30  0  0  0  0            999 V2000
   -0.1712   -0.6979    0.0000 C   0  0  0  0  0  0  0  0  0  0  0  0
    0.6538   -0.6979    0.0000 C   0  0  0  0  0  0  0  0  0  0  0  0
    1.1387   -0.0305    0.0000 N   0  0  0  0  0  0  0  0  0  0  0  0
    1.9233   -0.2854    0.0000 C   0  0  0  0  0  0  0  0  0  0  0  0
    2.6378    0.1271    0.0000 C   0  0  0  0  0  0  0  0  0  0  0  0
    2.6378    0.9521    0.0000 C   0  0  0  0  0  0  0  0  0  0  0  0
    3.3523    1.3646    0.0000 O   0  0  0  0  0  0  0  0  0  0  0  0
    1.9233    1.3646    0.0000 O   0  0  0  0  0  0  0  0  0  0  0  0
    3.3523   -0.2854    0.0000 C   0  0  0  0  0  0  0  0  0  0  0  0
    3.3523   -1.1104    0.0000 C   0  0  0  0  0  0  0  0  0  0  0  0
    4.0668   -1.5229    0.0000 C   0  0  0  0  0  0  0  0  0  0  0  0
    4.7812   -1.1104    0.0000 C   0  0  0  0  0  0  0  0  0  0  0  0
    5.4957   -1.5229    0.0000 C   0  0  0  0  0  0  0  0  0  0  0  0
    5.4957   -2.3479    0.0000 C   0  0  0  0  0  0  0  0  0  0  0  0
    6.2102   -2.7604    0.0000 C   0  0  0  0  0  0  0  0  0  0  0  0
    6.9246   -2.3479    0.0000 C   0  0  0  0  0  0  0  0  0  0  0  0
    7.6391   -2.7604    0.0000 C   0  0  0  0  0  0  0  0  0  0  0  0
    7.6391   -3.5854    0.0000 C   0  0  0  0  0  0  0  0  0  0  0  0
    6.9246   -3.9979    0.0000 C   0  0  0  0  0  0  0  0  0  0  0  0
    6.9246   -4.8229    0.0000 F   0  0  0  0  0  0  0  0  0  0  0  0
    6.2102   -3.5854    0.0000 C   0  0  0  0  0  0  0  0  0  0  0  0
    5.4957   -3.9979    0.0000 F   0  0  0  0  0  0  0  0  0  0  0  0
    4.7812   -2.7604    0.0000 C   0  0  0  0  0  0  0  0  0  0  0  0
    4.0668   -2.3479    0.0000 C   0  0  0  0  0  0  0  0  0  0  0  0
    2.6378   -1.5229    0.0000 C   0  0  0  0  0  0  0  0  0  0  0  0
    1.9233   -1.1104    0.0000 C   0  0  0  0  0  0  0  0  0  0  0  0
    1.1387   -1.3654    0.0000 N   0  0  0  0  0  0  0  0  0  0  0  0
  1  2  1  0  0  0  0
  2  3  4  0  0  0  0
  3  4  4  0  0  0  0
  4  5  4  0  0  0  0
  5  6  1  0  0  0  0
  6  7  2  0  0  0  0
  6  8  1  0  0  0  0
  5  9  4  0  0  0  0
  9 10  4  0  0  0  0
 10 11  1  0  0  0  0
 11 12  4  0  0  0  0
 12 13  4  0  0  0  0
 13 14  4  0  0  0  0
 14 15  1  0  0  0  0
 15 16  4  0  0  0  0
 16 17  4  0  0  0  0
 17 18  4  0  0  0  0
 18 19  4  0  0  0  0
 19 20  1  0  0  0  0
 19 21  4  0  0  0  0
 15 21  4  0  0  0  0
 21 22  1  0  0  0  0
 14 23  4  0  0  0  0
 23 24  4  0  0  0  0
 11 24  4  0  0  0  0
 10 25  4  0  0  0  0
 25 26  4  0  0  0  0
  4 26  4  0  0  0  0
 26 27  4  0  0  0  0
  2 27  4  0  0  0  0
M  STY  1   1 DAT
M  SAL   1  1  27
M  SDT   1 MRV_IMPLICIT_H                                        
M  SDD   1     0.5304   -0.4125    DR    ALL  0       0  
M  SED   1 IMPL_H1
M  END
> <IC50(uM)>
0.1

> <Outcome>
1.0

> <BindingDB ID>
1045583

> <BindingDB MonomerID>
501641

> <BindingDB Ligand Name>
US11028054, Example 4

> <Curation/DataSource>
US Patent

> <Article DOI>
?

> <PMID>
?

> <Patent Number>
US11028054

> <Authors>
Thunuguntla, SS; Hosahalli, S; Panigrahi, SK; Schwarz, M; Arit, M

> <Link to Ligand in BindingDB>
http://www.bindingdb.org/bind/chemsearch/marvin/MolStructure.jsp?monomerid=501641

> <Link to Ligand-Target Pair in BindingDB>
http://www.bindingdb.org/jsp/dbsearch/PrimarySearch_ki.jsp?energyterm=kJ/mole&tag=r21&monomerid=501641&enzyme=Dihydroorotate+dehydrogenase&column=ki&startPg=0&Increment=50&submit=Search

> <PubChem CID>
?

> <PubChem SID>
?

$$$$

  Mrv2115 07222212352D          

 31 35  0  0  0  0            999 V2000
    3.9934    2.4750    0.0000 N   0  0  0  0  0  0  0  0  0  0  0  0
    3.2789    2.0625    0.0000 C   0  0  0  0  0  0  0  0  0  0  0  0
    2.5645    2.4750    0.0000 O   0  0  0  0  0  0  0  0  0  0  0  0
    3.2789    1.2375    0.0000 C   0  0  0  0  0  0  0  0  0  0  0  0
    3.9934    0.8250    0.0000 C   0  0  0  0  0  0  0  0  0  0  0  0
    3.9934    0.0000    0.0000 C   0  0  0  0  0  0  0  0  0  0  0  0
    3.2789   -0.4125    0.0000 C   0  0  0  0  0  0  0  0  0  0  0  0
    2.5645    0.0000    0.0000 C   0  0  0  0  0  0  0  0  0  0  0  0
    1.7798   -0.2549    0.0000 N   0  0  0  0  0  0  0  0  0  0  0  0
    1.2949    0.4125    0.0000 C   0  0  0  0  0  0  0  0  0  0  0  0
    0.4699    0.4125    0.0000 C   0  0  0  0  0  0  0  0  0  0  0  0
    0.0574   -0.3020    0.0000 C   0  0  0  0  0  0  0  0  0  0  0  0
   -0.7676   -0.3020    0.0000 C   0  0  0  0  0  0  0  0  0  0  0  0
   -1.1801    0.4125    0.0000 C   0  0  0  0  0  0  0  0  0  0  0  0
   -2.0051    0.4125    0.0000 C   0  0  0  0  0  0  0  0  0  0  0  0
   -2.4176   -0.3020    0.0000 C   0  0  0  0  0  0  0  0  0  0  0  0
   -3.2426   -0.3020    0.0000 C   0  0  0  0  0  0  0  0  0  0  0  0
   -3.6551    0.4125    0.0000 C   0  0  0  0  0  0  0  0  0  0  0  0
   -4.4801    0.4125    0.0000 C   0  0  0  0  0  0  0  0  0  0  0  0
   -4.8926   -0.3020    0.0000 O   0  0  0  0  0  0  0  0  0  0  0  0
   -4.8926    1.1270    0.0000 N   0  0  0  0  0  0  0  0  0  0  0  0
   -5.7131    1.2132    0.0000 C   0  0  0  0  0  0  0  0  0  0  0  0
   -5.8846    2.0202    0.0000 C   0  0  0  0  0  0  0  0  0  0  0  0
   -5.1701    2.4327    0.0000 C   0  0  0  0  0  0  0  0  0  0  0  0
   -4.5570    1.8806    0.0000 C   0  0  0  0  0  0  0  0  0  0  0  0
   -3.2426    1.1270    0.0000 C   0  0  0  0  0  0  0  0  0  0  0  0
   -2.4176    1.1270    0.0000 C   0  0  0  0  0  0  0  0  0  0  0  0
   -0.7676    1.1270    0.0000 C   0  0  0  0  0  0  0  0  0  0  0  0
    0.0574    1.1270    0.0000 C   0  0  0  0  0  0  0  0  0  0  0  0
    1.7798    1.0799    0.0000 N   0  0  0  0  0  0  0  0  0  0  0  0
    2.5645    0.8250    0.0000 C   0  0  0  0  0  0  0  0  0  0  0  0
  1  2  1  0  0  0  0
  2  3  2  0  0  0  0
  2  4  1  0  0  0  0
  4  5  4  0  0  0  0
  5  6  4  0  0  0  0
  6  7  4  0  0  0  0
  7  8  4  0  0  0  0
  8  9  4  0  0  0  0
  9 10  4  0  0  0  0
 10 11  1  0  0  0  0
 11 12  4  0  0  0  0
 12 13  4  0  0  0  0
 13 14  4  0  0  0  0
 14 15  1  0  0  0  0
 15 16  4  0  0  0  0
 16 17  4  0  0  0  0
 17 18  4  0  0  0  0
 18 19  1  0  0  0  0
 19 20  2  0  0  0  0
 19 21  1  0  0  0  0
 21 22  1  0  0  0  0
 22 23  1  0  0  0  0
 23 24  1  0  0  0  0
 24 25  1  0  0  0  0
 21 25  1  0  0  0  0
 18 26  4  0  0  0  0
 26 27  4  0  0  0  0
 15 27  4  0  0  0  0
 14 28  4  0  0  0  0
 28 29  4  0  0  0  0
 11 29  4  0  0  0  0
 10 30  4  0  0  0  0
 30 31  4  0  0  0  0
  4 31  4  0  0  0  0
  8 31  4  0  0  0  0
M  STY  1   1 DAT
M  SAL   1  1   9
M  SDT   1 MRV_IMPLICIT_H                                        
M  SDD   1     0.5304   -0.4125    DR    ALL  0       0  
M  SED   1 IMPL_H1
M  END
> <IC50(uM)>
20.0

> <Outcome>
0.0

> <BindingDB ID>
50358221

> <BindingDB MonomerID>
50096144

> <BindingDB Ligand Name>
CHEMBL3593987

> <Curation/DataSource>
ChEMBL

> <Article DOI>
10.1016/j.bmc.2015.05.051

> <PMID>
26088338

> <Patent Number>
?

> <Authors>
Abdullah, I; Chee, CF; Lee, YK; Thunuguntla, SS; Satish Reddy, K; Nellore, K; Antony, T; Verma, J; Mun, KW; Othman, S; Subramanya, H; Rahman, NA

> <Link to Ligand in BindingDB>
http://www.bindingdb.org/bind/chemsearch/marvin/MolStructure.jsp?monomerid=50096144

> <Link to Ligand-Target Pair in BindingDB>
http://www.bindingdb.org/jsp/dbsearch/PrimarySearch_ki.jsp?energyterm=kJ/mole&tag=r21&monomerid=50096144&enzyme=Dihydroorotate+dehydrogenase&column=ki&startPg=0&Increment=50&submit=Search

> <PubChem CID>
122182315

> <PubChem SID>
318473797

$$$$

  Mrv2115 07222212352D          

 21 23  0  0  0  0            999 V2000
    5.4957    2.3479    0.0000 C   0  0  0  0  0  0  0  0  0  0  0  0
    4.7812    1.9354    0.0000 C   0  0  0  0  0  0  0  0  0  0  0  0
    4.0668    2.3479    0.0000 C   0  0  0  0  0  0  0  0  0  0  0  0
    3.3523    1.9354    0.0000 C   0  0  0  0  0  0  0  0  0  0  0  0
    3.3523    1.1104    0.0000 C   0  0  0  0  0  0  0  0  0  0  0  0
    4.0668    0.6979    0.0000 C   0  0  0  0  0  0  0  0  0  0  0  0
    2.6378    0.6979    0.0000 N   0  0  0  0  0  0  0  0  0  0  0  0
    1.9233    1.1104    0.0000 C   0  0  0  0  0  0  0  0  0  0  0  0
    1.1387    0.8555    0.0000 N   0  0  0  0  0  0  0  0  0  0  0  0
    0.6538    1.5229    0.0000 C   0  0  0  0  0  0  0  0  0  0  0  0
    1.1387    2.1904    0.0000 N   0  0  0  0  0  0  0  0  0  0  0  0
    1.9233    1.9354    0.0000 N   0  0  0  0  0  0  0  0  0  0  0  0
    2.6378    2.3479    0.0000 C   0  0  0  0  0  0  0  0  0  0  0  0
    2.6378    3.1729    0.0000 N   0  0  0  0  0  0  0  0  0  0  0  0
    3.3523    3.5854    0.0000 C   0  0  0  0  0  0  0  0  0  0  0  0
    3.3523    4.4104    0.0000 C   0  0  0  0  0  0  0  0  0  0  0  0
    4.0668    4.8229    0.0000 C   0  0  0  0  0  0  0  0  0  0  0  0
    4.7812    4.4104    0.0000 C   0  0  0  0  0  0  0  0  0  0  0  0
    5.4957    4.8229    0.0000 C   0  0  0  0  0  0  0  0  0  0  0  0
    4.7812    3.5854    0.0000 C   0  0  0  0  0  0  0  0  0  0  0  0
    4.0668    3.1729    0.0000 C   0  0  0  0  0  0  0  0  0  0  0  0
  1  2  1  0  0  0  0
  2  3  1  0  0  0  0
  3  4  1  0  0  0  0
  4  5  4  0  0  0  0
  5  6  1  0  0  0  0
  5  7  4  0  0  0  0
  7  8  4  0  0  0  0
  8  9  4  0  0  0  0
  9 10  4  0  0  0  0
 10 11  4  0  0  0  0
 11 12  4  0  0  0  0
  8 12  4  0  0  0  0
 12 13  4  0  0  0  0
  4 13  4  0  0  0  0
 13 14  1  0  0  0  0
 14 15  1  0  0  0  0
 15 16  4  0  0  0  0
 16 17  4  0  0  0  0
 17 18  4  0  0  0  0
 18 19  1  0  0  0  0
 18 20  4  0  0  0  0
 20 21  4  0  0  0  0
 15 21  4  0  0  0  0
M  END
> <IC50(uM)>
100.0

> <Outcome>
0.0

> <BindingDB ID>
50643204

> <BindingDB MonomerID>
50345439

> <BindingDB Ligand Name>
5-methyl-6-propyl-N-p-tolyl-[1,2,4]triazolo[1,5-a]pyrimidin-7-amine::CHEMBL1784716

> <Curation/DataSource>
ChEMBL

> <Article DOI>
10.1021/jm200265b

> <PMID>
21517059

> <Patent Number>
?

> <Authors>
Gujjar, R; El Mazouni, F; White, KL; White, J; Creason, S; Shackleford, DM; Deng, X; Charman, WN; Bathurst, I; Burrows, J; Floyd, DM; Matthews, D; Buckner, FS; Charman, SA; Phillips, MA; Rathod, PK

> <Link to Ligand in BindingDB>
http://www.bindingdb.org/bind/chemsearch/marvin/MolStructure.jsp?monomerid=50345439

> <Link to Ligand-Target Pair in BindingDB>
http://www.bindingdb.org/jsp/dbsearch/PrimarySearch_ki.jsp?energyterm=kJ/mole&tag=r21&monomerid=50345439&enzyme=Dihydroorotate+dehydrogenase&column=ki&startPg=0&Increment=50&submit=Search

> <PubChem CID>
22433941

> <PubChem SID>
131348375

$$$$

  Mrv2115 07222212352D          

 33 35  0  0  0  0            999 V2000
    2.1434   -3.7125    0.0000 C   0  0  0  0  0  0  0  0  0  0  0  0
    2.8579   -4.1250    0.0000 C   0  0  0  0  0  0  0  0  0  0  0  0
    2.8579   -4.9500    0.0000 C   0  0  0  0  0  0  0  0  0  0  0  0
    3.5724   -3.7125    0.0000 C   0  0  0  0  0  0  0  0  0  0  0  0
    4.2868   -4.1250    0.0000 C   0  0  0  0  0  0  0  0  0  0  0  0
    4.2868   -4.9500    0.0000 C   0  0  0  0  0  0  0  0  0  0  0  0
    5.0013   -3.7125    0.0000 O   0  0  0  0  0  0  0  0  0  0  0  0
    5.0013   -2.8875    0.0000 C   0  0  0  0  0  0  0  0  0  0  0  0
    4.2868   -2.4750    0.0000 C   0  0  0  0  0  0  0  0  0  0  0  0
    4.2868   -1.6500    0.0000 C   0  0  0  0  0  0  0  0  0  0  0  0
    3.5724   -1.2375    0.0000 N   0  0  0  0  0  0  0  0  0  0  0  0
    2.8187   -1.5731    0.0000 N   0  0  0  0  0  0  0  0  0  0  0  0
    2.2666   -0.9600    0.0000 C   0  0  0  0  0  0  0  0  0  0  0  0
    1.4462   -1.0462    0.0000 C   0  0  0  0  0  0  0  0  0  0  0  0
    0.9612   -0.3788    0.0000 C   0  0  0  0  0  0  0  0  0  0  0  0
    1.1106   -1.7999    0.0000 C   0  0  0  0  0  0  0  0  0  0  0  0
    2.6791   -0.2455    0.0000 N   0  0  0  0  0  0  0  0  0  0  0  0
    2.3436    0.5082    0.0000 C   0  0  0  0  0  0  0  0  0  0  0  0
    3.4861   -0.4170    0.0000 C   0  0  0  0  0  0  0  0  0  0  0  0
    4.0992    0.1350    0.0000 O   0  0  0  0  0  0  0  0  0  0  0  0
    5.0013   -1.2375    0.0000 C   0  0  0  0  0  0  0  0  0  0  0  0
    5.0013   -0.4125    0.0000 F   0  0  0  0  0  0  0  0  0  0  0  0
    5.7158   -1.6500    0.0000 C   0  0  0  0  0  0  0  0  0  0  0  0
    5.7158   -2.4750    0.0000 C   0  0  0  0  0  0  0  0  0  0  0  0
    6.4302   -2.8875    0.0000 C   0  0  0  0  0  0  0  0  0  0  0  0
    6.4302   -3.7125    0.0000 O   0  0  0  0  0  0  0  0  0  0  0  0
    7.1447   -2.4750    0.0000 N   0  0  0  0  0  0  0  0  0  0  0  0
    7.8592   -2.8875    0.0000 C   0  0  0  0  0  0  0  0  0  0  0  0
    8.5737   -2.4750    0.0000 C   0  0  0  0  0  0  0  0  0  0  0  0
    9.2881   -2.8875    0.0000 C   0  0  0  0  0  0  0  0  0  0  0  0
    9.2881   -3.7125    0.0000 N   0  0  0  0  0  0  0  0  0  0  0  0
    8.5737   -4.1250    0.0000 C   0  0  0  0  0  0  0  0  0  0  0  0
    7.8592   -3.7125    0.0000 C   0  0  0  0  0  0  0  0  0  0  0  0
  1  2  1  0  0  0  0
  2  3  1  0  0  0  0
  2  4  1  0  0  0  0
  4  5  1  0  0  0  0
  5  6  1  0  0  0  0
  5  7  1  0  0  0  0
  7  8  1  0  0  0  0
  8  9  4  0  0  0  0
  9 10  4  0  0  0  0
 10 11  1  0  0  0  0
 11 12  4  0  0  0  0
 12 13  4  0  0  0  0
 13 14  1  0  0  0  0
 14 15  1  0  0  0  0
 14 16  1  0  0  0  0
 13 17  4  0  0  0  0
 17 18  1  0  0  0  0
 17 19  4  0  0  0  0
 11 19  4  0  0  0  0
 19 20  2  0  0  0  0
 10 21  4  0  0  0  0
 21 22  1  0  0  0  0
 21 23  4  0  0  0  0
 23 24  4  0  0  0  0
  8 24  4  0  0  0  0
 24 25  1  0  0  0  0
 25 26  2  0  0  0  0
 25 27  1  0  0  0  0
 27 28  1  0  0  0  0
 28 29  4  0  0  0  0
 29 30  4  0  0  0  0
 30 31  4  0  0  0  0
 31 32  4  0  0  0  0
 32 33  4  0  0  0  0
 28 33  4  0  0  0  0
M  END
> <IC50(uM)>
4.35

> <Outcome>
0.0

> <BindingDB ID>
1098763; 972609; 1098764; 972610

> <BindingDB MonomerID>
470499

> <BindingDB Ligand Name>
5-fluoro-4-[4-methyl-5-oxo-3-(propan-2-yl)-4,5-dihydro-1H-1,2,4-triazol-1-yl]-2-{[(2S)-4-methylpentan-2-yl]oxy}-N-(pyridin-4-yl)benzamide::US10815215, Example 151::US11130745, Example 151; 5-fluoro-4-[4-methyl-5-oxo-3-(propan-2-yl)-4,5-dihydro-1H-1,2,4-triazol-1-yl]-2-{[(2S)-4-methylpentan-2-yl]oxy}-N-(pyridin-4-yl)benzamide::US10815215, Example 151

> <Curation/DataSource>
US Patent

> <Article DOI>
?

> <PMID>
?

> <Patent Number>
US11130745; US10815215

> <Authors>
Gradl, SN; Nguyen, D; Eis, K; Gunther, J; Stellfeld, T; Janzer, A; Christian, S; Muller, T; Sheikh, SE; Sykes, DB; Ferrara, SJ; Krober, M; Merz, C; Niehues, M; Schafer, M; Zimmermann, K; Nising, CF; Gradl, SN; Nguyen, D; Eis, K; Gunther, J; Stellfeld, T; Janzer, A; Christian, S; Muller, T; Sheikh, SE; Zhou, HJ; Zhao, C; Sykes, DB; Ferrara, SJ; Liu, K; Krober, M; Merz, C; Niehues, M; Schafer, M; Zimmermann, K; Nising, CF

> <Link to Ligand in BindingDB>
http://www.bindingdb.org/bind/chemsearch/marvin/MolStructure.jsp?monomerid=470499

> <Link to Ligand-Target Pair in BindingDB>
http://www.bindingdb.org/jsp/dbsearch/PrimarySearch_ki.jsp?energyterm=kJ/mole&tag=r21&monomerid=470499&enzyme=Dihydroorotate+dehydrogenase&column=ki&startPg=0&Increment=50&submit=Search

> <PubChem CID>
134470390

> <PubChem SID>
441609676

$$$$

  Mrv2115 07222212352D          

 32 33  0  0  0  0            999 V2000
   -2.1434   -1.2375    0.0000 C   0  0  0  0  0  0  0  0  0  0  0  0
   -1.4289   -1.6500    0.0000 C   0  0  0  0  0  0  0  0  0  0  0  0
   -0.7145   -1.2375    0.0000 C   0  0  0  0  0  0  0  0  0  0  0  0
    0.0000   -1.6500    0.0000 C   0  0  0  0  0  0  0  0  0  0  0  0
    0.0000   -2.4750    0.0000 C   0  0  0  0  0  0  0  0  0  0  0  0
    0.7145   -1.2375    0.0000 O   0  0  0  0  0  0  0  0  0  0  0  0
    0.7145   -0.4125    0.0000 C   0  0  0  0  0  0  0  0  0  0  0  0
    0.0000    0.0000    0.0000 C   0  0  0  0  0  0  0  0  0  0  0  0
    0.0000    0.8250    0.0000 C   0  0  0  0  0  0  0  0  0  0  0  0
   -0.7145    1.2375    0.0000 N   0  0  0  0  0  0  0  0  0  0  0  0
   -1.4681    0.9019    0.0000 N   0  0  0  0  0  0  0  0  0  0  0  0
   -2.0202    1.5150    0.0000 C   0  0  0  0  0  0  0  0  0  0  0  0
   -2.8407    1.4288    0.0000 C   0  0  0  0  0  0  0  0  0  0  0  0
   -2.9269    2.2493    0.0000 C   0  0  0  0  0  0  0  0  0  0  0  0
   -3.6611    1.3426    0.0000 C   0  0  0  0  0  0  0  0  0  0  0  0
   -2.7544    0.6083    0.0000 O   0  0  0  0  0  0  0  0  0  0  0  0
   -1.6077    2.2295    0.0000 N   0  0  0  0  0  0  0  0  0  0  0  0
   -1.9432    2.9832    0.0000 C   0  0  0  0  0  0  0  0  0  0  0  0
   -0.8007    2.0580    0.0000 C   0  0  0  0  0  0  0  0  0  0  0  0
   -0.1876    2.6100    0.0000 O   0  0  0  0  0  0  0  0  0  0  0  0
    0.7145    1.2375    0.0000 C   0  0  0  0  0  0  0  0  0  0  0  0
    0.7145    2.0625    0.0000 F   0  0  0  0  0  0  0  0  0  0  0  0
    1.4289    0.8250    0.0000 C   0  0  0  0  0  0  0  0  0  0  0  0
    1.4289    0.0000    0.0000 C   0  0  0  0  0  0  0  0  0  0  0  0
    2.1434   -0.4125    0.0000 C   0  0  0  0  0  0  0  0  0  0  0  0
    2.8579    0.0000    0.0000 O   0  0  0  0  0  0  0  0  0  0  0  0
    2.1434   -1.2375    0.0000 N   0  0  0  0  0  0  0  0  0  0  0  0
    2.8579   -1.6500    0.0000 C   0  0  0  0  0  0  0  0  0  0  0  0
    2.8579   -2.4750    0.0000 C   0  0  0  0  0  0  0  0  0  0  0  0
    3.5724   -2.8875    0.0000 C   0  0  0  0  0  0  0  0  0  0  0  0
    3.5724   -1.2375    0.0000 C   0  0  0  0  0  0  0  0  0  0  0  0
    3.5724   -0.4125    0.0000 C   0  0  0  0  0  0  0  0  0  0  0  0
  1  2  1  0  0  0  0
  2  3  1  0  0  0  0
  3  4  1  0  0  0  0
  4  5  1  0  0  0  0
  4  6  1  0  0  0  0
  6  7  1  0  0  0  0
  7  8  4  0  0  0  0
  8  9  4  0  0  0  0
  9 10  1  0  0  0  0
 10 11  4  0  0  0  0
 11 12  4  0  0  0  0
 12 13  1  0  0  0  0
 13 14  1  0  0  0  0
 13 15  1  0  0  0  0
 13 16  1  0  0  0  0
 12 17  4  0  0  0  0
 17 18  1  0  0  0  0
 17 19  4  0  0  0  0
 10 19  4  0  0  0  0
 19 20  2  0  0  0  0
  9 21  4  0  0  0  0
 21 22  1  0  0  0  0
 21 23  4  0  0  0  0
 23 24  4  0  0  0  0
  7 24  4  0  0  0  0
 24 25  1  0  0  0  0
 25 26  2  0  0  0  0
 25 27  1  0  0  0  0
 27 28  1  0  0  0  0
 28 29  1  0  0  0  0
 29 30  1  0  0  0  0
 28 31  1  0  0  0  0
 31 32  1  0  0  0  0
M  END
> <IC50(uM)>
0.013

> <Outcome>
1.0

> <BindingDB ID>
1098757; 972603

> <BindingDB MonomerID>
470482

> <BindingDB Ligand Name>
5-fluoro-4-[3-(2-hydroxypropan-2-yl)-4-methyl-5-oxo-4,5-dihydro-1H-1,2,4-triazol-1-yl]-N-(pentan-3-yl)-2-[(2S)-pentan-2-yloxy]benzamide::US10815215, Example 145::US11130745, Example 145; 5-fluoro-4-[3-(2-hydroxypropan-2-yl)-4-methyl-5-oxo-4,5-dihydro-1H-1,2,4-triazol-1-yl]-N-(pentan-3-yl)-2-[(2S)-pentan-2-yloxy]benzamide::US10815215, Example 145

> <Curation/DataSource>
US Patent

> <Article DOI>
?

> <PMID>
?

> <Patent Number>
US11130745; US10815215

> <Authors>
Gradl, SN; Nguyen, D; Eis, K; Gunther, J; Stellfeld, T; Janzer, A; Christian, S; Muller, T; Sheikh, SE; Sykes, DB; Ferrara, SJ; Krober, M; Merz, C; Niehues, M; Schafer, M; Zimmermann, K; Nising, CF; Gradl, SN; Nguyen, D; Eis, K; Gunther, J; Stellfeld, T; Janzer, A; Christian, S; Muller, T; Sheikh, SE; Zhou, HJ; Zhao, C; Sykes, DB; Ferrara, SJ; Liu, K; Krober, M; Merz, C; Niehues, M; Schafer, M; Zimmermann, K; Nising, CF

> <Link to Ligand in BindingDB>
http://www.bindingdb.org/bind/chemsearch/marvin/MolStructure.jsp?monomerid=470482

> <Link to Ligand-Target Pair in BindingDB>
http://www.bindingdb.org/jsp/dbsearch/PrimarySearch_ki.jsp?energyterm=kJ/mole&tag=r21&monomerid=470482&enzyme=Dihydroorotate+dehydrogenase&column=ki&startPg=0&Increment=50&submit=Search

> <PubChem CID>
134470200

> <PubChem SID>
441609659

$$$$

  Mrv2115 07222212352D          

 26 29  0  0  0  0            999 V2000
    5.1156   -3.2652    0.0000 C   0  0  0  0  0  0  0  0  0  0  0  0
    4.4011   -3.6777    0.0000 C   0  0  0  0  0  0  0  0  0  0  0  0
    4.4011   -4.5027    0.0000 C   0  0  0  0  0  0  0  0  0  0  0  0
    3.6866   -4.9152    0.0000 C   0  0  0  0  0  0  0  0  0  0  0  0
    3.6866   -5.7402    0.0000 N   0  0  0  0  0  0  0  0  0  0  0  0
    4.4011   -6.1527    0.0000 C   0  0  0  0  0  0  0  0  0  0  0  0
    5.1548   -5.8172    0.0000 C   0  0  0  0  0  0  0  0  0  0  0  0
    5.7068   -6.4303    0.0000 C   0  0  0  0  0  0  0  0  0  0  0  0
    6.5318   -6.4303    0.0000 C   0  0  0  0  0  0  0  0  0  0  0  0
    6.9443   -5.7158    0.0000 F   0  0  0  0  0  0  0  0  0  0  0  0
    6.9443   -7.1447    0.0000 C   0  0  0  0  0  0  0  0  0  0  0  0
    6.5318   -7.8592    0.0000 C   0  0  0  0  0  0  0  0  0  0  0  0
    5.7068   -7.8592    0.0000 C   0  0  0  0  0  0  0  0  0  0  0  0
    5.2943   -8.5737    0.0000 F   0  0  0  0  0  0  0  0  0  0  0  0
    5.2943   -7.1447    0.0000 C   0  0  0  0  0  0  0  0  0  0  0  0
    4.4874   -6.9732    0.0000 C   0  0  0  0  0  0  0  0  0  0  0  0
    2.9722   -4.5027    0.0000 N   0  0  0  0  0  0  0  0  0  0  0  0
    2.1876   -4.7577    0.0000 N   0  0  0  0  0  0  0  0  0  0  0  0
    1.7026   -4.0902    0.0000 C   0  0  0  0  0  0  0  0  0  0  0  0
    0.8776   -4.0902    0.0000 C   0  0  0  0  0  0  0  0  0  0  0  0
    0.0526   -4.0902    0.0000 C   0  0  0  0  0  0  0  0  0  0  0  0
    0.8776   -3.2652    0.0000 F   0  0  0  0  0  0  0  0  0  0  0  0
    0.8776   -4.9152    0.0000 F   0  0  0  0  0  0  0  0  0  0  0  0
    2.1876   -3.4228    0.0000 N   0  0  0  0  0  0  0  0  0  0  0  0
    2.9722   -3.6777    0.0000 C   0  0  0  0  0  0  0  0  0  0  0  0
    3.6866   -3.2652    0.0000 N   0  0  0  0  0  0  0  0  0  0  0  0
  1  2  1  0  0  0  0
  2  3  4  0  0  0  0
  3  4  4  0  0  0  0
  4  5  1  0  0  0  0
  5  6  1  0  0  0  0
  6  7  1  0  0  0  0
  7  8  1  0  0  0  0
  8  9  4  0  0  0  0
  9 10  1  0  0  0  0
  9 11  4  0  0  0  0
 11 12  4  0  0  0  0
 12 13  4  0  0  0  0
 13 14  1  0  0  0  0
 13 15  4  0  0  0  0
  8 15  4  0  0  0  0
 15 16  1  0  0  0  0
  6 16  1  0  0  0  0
  4 17  4  0  0  0  0
 17 18  4  0  0  0  0
 18 19  4  0  0  0  0
 19 20  1  0  0  0  0
 20 21  1  0  0  0  0
 20 22  1  0  0  0  0
 20 23  1  0  0  0  0
 19 24  4  0  0  0  0
 24 25  4  0  0  0  0
 17 25  4  0  0  0  0
 25 26  4  0  0  0  0
  2 26  4  0  0  0  0
M  END
> <IC50(uM)>
100.0

> <Outcome>
0.0

> <BindingDB ID>
51373011

> <BindingDB MonomerID>
50555378

> <BindingDB Ligand Name>
CHEMBL4791257

> <Curation/DataSource>
ChEMBL

> <Article DOI>
?

> <PMID>
27127993

> <Patent Number>
?

> <Authors>
Kokkonda, S; Deng, X; White, KL; Coteron, JM; Marco, M; de Las Heras, L; White, J; El Mazouni, F; Tomchick, DR; Manjalanagara, K; Rudra, KR; Chen, G; Morizzi, J; Ryan, E; Kaminsky, W; Leroy, D; Mart??nez-Mart??nez, MS; Jimenez-Diaz, MB; Bazaga, SF; Angulo-Barturen, I; Waterson, D; Burrows, JN; Matthews, D; Charman, SA; Phillips, MA; Rathod, PK

> <Link to Ligand in BindingDB>
http://www.bindingdb.org/bind/chemsearch/marvin/MolStructure.jsp?monomerid=50555378

> <Link to Ligand-Target Pair in BindingDB>
http://www.bindingdb.org/jsp/dbsearch/PrimarySearch_ki.jsp?energyterm=kJ/mole&tag=r21&monomerid=50555378&enzyme=Dihydroorotate+dehydrogenase&column=ki&startPg=0&Increment=50&submit=Search

> <PubChem CID>
162671999

> <PubChem SID>
461694146

$$$$

  Mrv2115 07222212352D          

 37 41  0  0  0  0            999 V2000
    0.7145   -5.3625    0.0000 C   0  0  0  0  0  0  0  0  0  0  0  0
   -0.0000   -4.9500    0.0000 C   0  0  0  0  0  0  0  0  0  0  0  0
   -0.0000   -4.1250    0.0000 O   0  0  0  0  0  0  0  0  0  0  0  0
   -0.7145   -3.7125    0.0000 C   0  0  0  0  0  0  0  0  0  0  0  0
   -1.4289   -4.1250    0.0000 C   0  0  0  0  0  0  0  0  0  0  0  0
   -2.1434   -3.7125    0.0000 C   0  0  0  0  0  0  0  0  0  0  0  0
   -2.8579   -4.1250    0.0000 N   0  0  0  0  0  0  0  0  0  0  0  0
   -3.6116   -3.7894    0.0000 N   0  0  0  0  0  0  0  0  0  0  0  0
   -4.1636   -4.4025    0.0000 C   0  0  0  0  0  0  0  0  0  0  0  0
   -3.7511   -5.1170    0.0000 N   0  0  0  0  0  0  0  0  0  0  0  0
   -2.9441   -4.9455    0.0000 C   0  0  0  0  0  0  0  0  0  0  0  0
   -2.3310   -5.4975    0.0000 O   0  0  0  0  0  0  0  0  0  0  0  0
   -4.1636   -5.8315    0.0000 C   0  0  0  0  0  0  0  0  0  0  0  0
   -4.9886   -5.8315    0.0000 C   0  0  0  0  0  0  0  0  0  0  0  0
   -5.4011   -5.1170    0.0000 C   0  0  0  0  0  0  0  0  0  0  0  0
   -4.9886   -4.4025    0.0000 C   0  0  0  0  0  0  0  0  0  0  0  0
   -2.1434   -2.8875    0.0000 C   0  0  0  0  0  0  0  0  0  0  0  0
   -2.8579   -2.4750    0.0000 F   0  0  0  0  0  0  0  0  0  0  0  0
   -1.4289   -2.4750    0.0000 C   0  0  0  0  0  0  0  0  0  0  0  0
   -0.7145   -2.8875    0.0000 C   0  0  0  0  0  0  0  0  0  0  0  0
    0.0000   -2.4750    0.0000 C   0  0  0  0  0  0  0  0  0  0  0  0
    0.7145   -2.8875    0.0000 O   0  0  0  0  0  0  0  0  0  0  0  0
    0.0000   -1.6500    0.0000 N   0  0  0  0  0  0  0  0  0  0  0  0
    0.7145   -1.2375    0.0000 C   0  0  0  0  0  0  0  0  0  0  0  0
    0.7145   -0.4125    0.0000 C   0  0  0  0  0  0  0  0  0  0  0  0
    1.4289    0.0000    0.0000 C   0  0  0  0  0  0  0  0  0  0  0  0
    2.1434   -0.4125    0.0000 C   0  0  0  0  0  0  0  0  0  0  0  0
    2.8579    0.0000    0.0000 N   0  0  0  0  0  0  0  0  0  0  0  0
    3.5724   -0.4125    0.0000 C   0  0  0  0  0  0  0  0  0  0  0  0
    3.5724   -1.2375    0.0000 C   0  0  0  0  0  0  0  0  0  0  0  0
    2.8579   -1.6500    0.0000 C   0  0  0  0  0  0  0  0  0  0  0  0
    2.1434   -1.2375    0.0000 C   0  0  0  0  0  0  0  0  0  0  0  0
    1.4289   -1.6500    0.0000 C   0  0  0  0  0  0  0  0  0  0  0  0
   -0.7145   -5.3625    0.0000 C   0  0  0  0  0  0  0  0  0  0  0  0
   -1.1270   -4.6480    0.0000 F   0  0  0  0  0  0  0  0  0  0  0  0
   -0.3020   -6.0770    0.0000 F   0  0  0  0  0  0  0  0  0  0  0  0
   -1.4289   -5.7750    0.0000 F   0  0  0  0  0  0  0  0  0  0  0  0
  1  2  1  0  0  0  0
  2  3  1  0  0  0  0
  3  4  1  0  0  0  0
  4  5  4  0  0  0  0
  5  6  4  0  0  0  0
  6  7  1  0  0  0  0
  7  8  4  0  0  0  0
  8  9  4  0  0  0  0
  9 10  4  0  0  0  0
 10 11  4  0  0  0  0
  7 11  4  0  0  0  0
 11 12  2  0  0  0  0
 10 13  1  0  0  0  0
 13 14  1  0  0  0  0
 14 15  1  0  0  0  0
 15 16  1  0  0  0  0
  9 16  1  0  0  0  0
  6 17  4  0  0  0  0
 17 18  1  0  0  0  0
 17 19  4  0  0  0  0
 19 20  4  0  0  0  0
  4 20  4  0  0  0  0
 20 21  1  0  0  0  0
 21 22  2  0  0  0  0
 21 23  1  0  0  0  0
 23 24  1  0  0  0  0
 24 25  4  0  0  0  0
 25 26  4  0  0  0  0
 26 27  4  0  0  0  0
 27 28  4  0  0  0  0
 28 29  4  0  0  0  0
 29 30  4  0  0  0  0
 30 31  4  0  0  0  0
 31 32  4  0  0  0  0
 27 32  4  0  0  0  0
 32 33  4  0  0  0  0
 24 33  4  0  0  0  0
  2 34  1  0  0  0  0
 34 35  1  0  0  0  0
 34 36  1  0  0  0  0
 34 37  1  0  0  0  0
M  END
> <IC50(uM)>
30.0

> <Outcome>
0.0

> <BindingDB ID>
1020480

> <BindingDB MonomerID>
490428

> <BindingDB Ligand Name>
5-fluoro-4-(3-oxo-5,6,7,8-tetrahydro[1,2,4]triazolo[4,3-a]pyridin-2(3H)-yl)-N-(quinolin-6-yl)-2-{[(2S)-1,1,1-trifluoropropan-2-yl]oxy}benzamide::US10968216, Example 96

> <Curation/DataSource>
US Patent

> <Article DOI>
?

> <PMID>
?

> <Patent Number>
US10968216

> <Authors>
Gradl, SN; Nguyen, D; Eis, K; Gunther, J; Stellfeld, T; Janzer, A; Christian, S; Mueller, T; Sheikh, SE; Zhou, HJ; Zhao, C; Sykes, DB; Ferrara, SJ; Liu, K; Herbert, SA; Merz, C; Niehues, M; Nising, CF; Schafer, M; Zimmermann, K; Knablein, J; Thede, K; Faupel, T

> <Link to Ligand in BindingDB>
http://www.bindingdb.org/bind/chemsearch/marvin/MolStructure.jsp?monomerid=490428

> <Link to Ligand-Target Pair in BindingDB>
http://www.bindingdb.org/jsp/dbsearch/PrimarySearch_ki.jsp?energyterm=kJ/mole&tag=r21&monomerid=490428&enzyme=Dihydroorotate+dehydrogenase&column=ki&startPg=0&Increment=50&submit=Search

> <PubChem CID>
134473868

> <PubChem SID>
447117155

$$$$

  Mrv2115 07222212352D          

 33 35  0  0  0  0            999 V2000
    2.1434   -3.7125    0.0000 C   0  0  0  0  0  0  0  0  0  0  0  0
    2.8579   -4.1250    0.0000 C   0  0  0  0  0  0  0  0  0  0  0  0
    3.5724   -3.7125    0.0000 C   0  0  0  0  0  0  0  0  0  0  0  0
    4.2868   -4.1250    0.0000 C   0  0  0  0  0  0  0  0  0  0  0  0
    4.2868   -4.9500    0.0000 C   0  0  0  0  0  0  0  0  0  0  0  0
    5.0013   -3.7125    0.0000 O   0  0  0  0  0  0  0  0  0  0  0  0
    5.0013   -2.8875    0.0000 C   0  0  0  0  0  0  0  0  0  0  0  0
    4.2868   -2.4750    0.0000 C   0  0  0  0  0  0  0  0  0  0  0  0
    4.2868   -1.6500    0.0000 C   0  0  0  0  0  0  0  0  0  0  0  0
    3.5724   -1.2375    0.0000 N   0  0  0  0  0  0  0  0  0  0  0  0
    2.8187   -1.5731    0.0000 N   0  0  0  0  0  0  0  0  0  0  0  0
    2.2666   -0.9600    0.0000 C   0  0  0  0  0  0  0  0  0  0  0  0
    1.4462   -1.0462    0.0000 C   0  0  0  0  0  0  0  0  0  0  0  0
    1.1106   -1.7999    0.0000 C   0  0  0  0  0  0  0  0  0  0  0  0
    2.6791   -0.2455    0.0000 N   0  0  0  0  0  0  0  0  0  0  0  0
    2.3436    0.5082    0.0000 C   0  0  0  0  0  0  0  0  0  0  0  0
    3.4861   -0.4170    0.0000 C   0  0  0  0  0  0  0  0  0  0  0  0
    4.0992    0.1350    0.0000 O   0  0  0  0  0  0  0  0  0  0  0  0
    5.0013   -1.2375    0.0000 C   0  0  0  0  0  0  0  0  0  0  0  0
    5.0013   -0.4125    0.0000 F   0  0  0  0  0  0  0  0  0  0  0  0
    5.7158   -1.6500    0.0000 C   0  0  0  0  0  0  0  0  0  0  0  0
    5.7158   -2.4750    0.0000 C   0  0  0  0  0  0  0  0  0  0  0  0
    6.4302   -2.8875    0.0000 C   0  0  0  0  0  0  0  0  0  0  0  0
    6.4302   -3.7125    0.0000 O   0  0  0  0  0  0  0  0  0  0  0  0
    7.1447   -2.4750    0.0000 N   0  0  0  0  0  0  0  0  0  0  0  0
    7.8592   -2.8875    0.0000 C   0  0  0  0  0  0  0  0  0  0  0  0
    8.5737   -2.4750    0.0000 C   0  0  0  0  0  0  0  0  0  0  0  0
    9.2881   -2.8875    0.0000 C   0  0  0  0  0  0  0  0  0  0  0  0
    9.2881   -3.7125    0.0000 C   0  0  0  0  0  0  0  0  0  0  0  0
   10.0026   -4.1250    0.0000 N   0  0  0  0  0  0  0  0  0  0  0  0
    8.5737   -4.1250    0.0000 C   0  0  0  0  0  0  0  0  0  0  0  0
    7.8592   -3.7125    0.0000 C   0  0  0  0  0  0  0  0  0  0  0  0
    7.1447   -4.1250    0.0000 C   0  0  0  0  0  0  0  0  0  0  0  0
  1  2  2  0  0  0  0
  2  3  1  0  0  0  0
  3  4  1  0  0  0  0
  4  5  1  0  0  0  0
  4  6  1  0  0  0  0
  6  7  1  0  0  0  0
  7  8  4  0  0  0  0
  8  9  4  0  0  0  0
  9 10  1  0  0  0  0
 10 11  4  0  0  0  0
 11 12  4  0  0  0  0
 12 13  1  0  0  0  0
 13 14  1  0  0  0  0
 12 15  4  0  0  0  0
 15 16  1  0  0  0  0
 15 17  4  0  0  0  0
 10 17  4  0  0  0  0
 17 18  2  0  0  0  0
  9 19  4  0  0  0  0
 19 20  1  0  0  0  0
 19 21  4  0  0  0  0
 21 22  4  0  0  0  0
  7 22  4  0  0  0  0
 22 23  1  0  0  0  0
 23 24  2  0  0  0  0
 23 25  1  0  0  0  0
 25 26  1  0  0  0  0
 26 27  4  0  0  0  0
 27 28  4  0  0  0  0
 28 29  4  0  0  0  0
 29 30  1  0  0  0  0
 29 31  4  0  0  0  0
 31 32  4  0  0  0  0
 26 32  4  0  0  0  0
 32 33  1  0  0  0  0
M  END
> <IC50(uM)>
0.0212

> <Outcome>
1.0

> <BindingDB ID>
972546; 1098700

> <BindingDB MonomerID>
470420

> <BindingDB Ligand Name>
US10815215, Example 85; US10815215, Example 85::US11130745, Example 85

> <Curation/DataSource>
US Patent

> <Article DOI>
?

> <PMID>
?

> <Patent Number>
US10815215; US11130745

> <Authors>
Gradl, SN; Nguyen, D; Eis, K; Gunther, J; Stellfeld, T; Janzer, A; Christian, S; Muller, T; Sheikh, SE; Zhou, HJ; Zhao, C; Sykes, DB; Ferrara, SJ; Liu, K; Krober, M; Merz, C; Niehues, M; Schafer, M; Zimmermann, K; Nising, CF; Gradl, SN; Nguyen, D; Eis, K; Gunther, J; Stellfeld, T; Janzer, A; Christian, S; Muller, T; Sheikh, SE; Sykes, DB; Ferrara, SJ; Krober, M; Merz, C; Niehues, M; Schafer, M; Zimmermann, K; Nising, CF

> <Link to Ligand in BindingDB>
http://www.bindingdb.org/bind/chemsearch/marvin/MolStructure.jsp?monomerid=470420

> <Link to Ligand-Target Pair in BindingDB>
http://www.bindingdb.org/jsp/dbsearch/PrimarySearch_ki.jsp?energyterm=kJ/mole&tag=r21&monomerid=470420&enzyme=Dihydroorotate+dehydrogenase&column=ki&startPg=0&Increment=50&submit=Search

> <PubChem CID>
134469877

> <PubChem SID>
441609597

$$$$

  Mrv2115 07222212352D          

 24 26  0  0  0  0            999 V2000
    4.1904   -0.1949    0.0000 C   0  0  0  0  0  0  0  0  0  0  0  0
    3.7055   -0.8624    0.0000 C   0  0  0  0  0  0  0  0  0  0  0  0
    3.9604   -1.6470    0.0000 N   0  0  0  0  0  0  0  0  0  0  0  0
    3.2930   -2.1319    0.0000 C   0  0  0  0  0  0  0  0  0  0  0  0
    3.2930   -2.9569    0.0000 C   0  0  0  0  0  0  0  0  0  0  0  0
    2.5785   -3.3694    0.0000 O   0  0  0  0  0  0  0  0  0  0  0  0
    4.0075   -3.3694    0.0000 N   0  0  0  0  0  0  0  0  0  0  0  0
    4.0075   -4.1944    0.0000 C   0  0  0  0  0  0  0  0  0  0  0  0
    4.4200   -4.9089    0.0000 C   0  0  0  0  0  0  0  0  0  0  0  0
    3.5950   -4.9089    0.0000 C   0  0  0  0  0  0  0  0  0  0  0  0
    2.6256   -1.6470    0.0000 C   0  0  0  0  0  0  0  0  0  0  0  0
    1.8409   -1.9019    0.0000 C   0  0  0  0  0  0  0  0  0  0  0  0
    2.8805   -0.8624    0.0000 C   0  0  0  0  0  0  0  0  0  0  0  0
    2.3956   -0.1949    0.0000 O   0  0  0  0  0  0  0  0  0  0  0  0
    2.7311    0.5587    0.0000 C   0  0  0  0  0  0  0  0  0  0  0  0
    2.2462    1.2262    0.0000 C   0  0  0  0  0  0  0  0  0  0  0  0
    2.5818    1.9799    0.0000 C   0  0  0  0  0  0  0  0  0  0  0  0
    3.4023    2.0661    0.0000 C   0  0  0  0  0  0  0  0  0  0  0  0
    3.7378    2.8198    0.0000 C   0  0  0  0  0  0  0  0  0  0  0  0
    4.0734    3.5734    0.0000 F   0  0  0  0  0  0  0  0  0  0  0  0
    4.4915    2.4842    0.0000 F   0  0  0  0  0  0  0  0  0  0  0  0
    2.9841    3.1553    0.0000 F   0  0  0  0  0  0  0  0  0  0  0  0
    3.8872    1.3987    0.0000 N   0  0  0  0  0  0  0  0  0  0  0  0
    3.5516    0.6450    0.0000 C   0  0  0  0  0  0  0  0  0  0  0  0
  1  2  1  0  0  0  0
  2  3  4  0  0  0  0
  3  4  4  0  0  0  0
  4  5  1  0  0  0  0
  5  6  2  0  0  0  0
  5  7  1  0  0  0  0
  7  8  1  0  0  0  0
  8  9  1  0  0  0  0
  9 10  1  0  0  0  0
  8 10  1  0  0  0  0
  4 11  4  0  0  0  0
 11 12  1  0  0  0  0
 11 13  4  0  0  0  0
  2 13  4  0  0  0  0
 13 14  1  0  0  0  0
 14 15  1  0  0  0  0
 15 16  4  0  0  0  0
 16 17  4  0  0  0  0
 17 18  4  0  0  0  0
 18 19  1  0  0  0  0
 19 20  1  0  0  0  0
 19 21  1  0  0  0  0
 19 22  1  0  0  0  0
 18 23  4  0  0  0  0
 23 24  4  0  0  0  0
 15 24  4  0  0  0  0
M  STY  1   1 DAT
M  SAL   1  1   3
M  SDT   1 MRV_IMPLICIT_H                                        
M  SDD   1     0.5304   -0.4125    DR    ALL  0       0  
M  SED   1 IMPL_H1
M  END
> <IC50(uM)>
100.0

> <Outcome>
0.0

> <BindingDB ID>
51330116

> <BindingDB MonomerID>
50538364

> <BindingDB Ligand Name>
CHEMBL4634334

> <Curation/DataSource>
ChEMBL

> <Article DOI>
10.1021/acs.jmedchem.0c00311

> <PMID>
32248693

> <Patent Number>
?

> <Authors>
Kokkonda, S; Deng, X; White, KL; El Mazouni, F; White, J; Shackleford, DM; Katneni, K; Chiu, FCK; Barker, H; McLaren, J; Crighton, E; Chen, G; Angulo-Barturen, I; Jimenez-Diaz, MB; Ferrer, S; Huertas-Valentin, L; Martinez-Martinez, MS; Lafuente-Monasterio, MJ; Chittimalla, R; Shahi, SP; Wittlin, S; Waterson, D; Burrows, JN; Matthews, D; Tomchick, D; Rathod, PK; Palmer, MJ; Charman, SA; Phillips, MA

> <Link to Ligand in BindingDB>
http://www.bindingdb.org/bind/chemsearch/marvin/MolStructure.jsp?monomerid=50538364

> <Link to Ligand-Target Pair in BindingDB>
http://www.bindingdb.org/jsp/dbsearch/PrimarySearch_ki.jsp?energyterm=kJ/mole&tag=r21&monomerid=50538364&enzyme=Dihydroorotate+dehydrogenase&column=ki&startPg=0&Increment=50&submit=Search

> <PubChem CID>
156010311

> <PubChem SID>
442139927

$$$$

  Mrv2115 07222212352D          

 29 30  0  0  0  0            999 V2000
   -5.7158    3.3000    0.0000 C   0  0  0  0  0  0  0  0  0  0  0  0
   -5.0013    3.7125    0.0000 C   0  0  0  0  0  0  0  0  0  0  0  0
   -4.2868    3.3000    0.0000 O   0  0  0  0  0  0  0  0  0  0  0  0
   -3.5724    3.7125    0.0000 C   0  0  0  0  0  0  0  0  0  0  0  0
   -3.5724    4.5375    0.0000 C   0  0  0  0  0  0  0  0  0  0  0  0
   -2.8579    4.9500    0.0000 C   0  0  0  0  0  0  0  0  0  0  0  0
   -2.1434    4.5375    0.0000 C   0  0  0  0  0  0  0  0  0  0  0  0
   -2.1434    3.7125    0.0000 C   0  0  0  0  0  0  0  0  0  0  0  0
   -1.4289    3.3000    0.0000 C   0  0  0  0  0  0  0  0  0  0  0  0
   -0.7145    3.7125    0.0000 C   0  0  0  0  0  0  0  0  0  0  0  0
    0.0000    3.3000    0.0000 C   0  0  0  0  0  0  0  0  0  0  0  0
    0.0000    2.4750    0.0000 C   0  0  0  0  0  0  0  0  0  0  0  0
    0.7145    2.0625    0.0000 N   0  0  0  0  0  0  0  0  0  0  0  0
    1.4289    2.4750    0.0000 C   0  0  0  0  0  0  0  0  0  0  0  0
    1.4289    3.3000    0.0000 O   0  0  0  0  0  0  0  0  0  0  0  0
    2.1434    2.0625    0.0000 C   0  0  0  0  0  0  0  0  0  0  0  0
    2.1434    1.2375    0.0000 C   0  0  0  0  0  0  0  0  0  0  0  0
    2.1434    0.4125    0.0000 N   0  0  0  0  0  0  0  0  0  0  0  0
    2.8579    2.4750    0.0000 C   0  0  0  0  0  0  0  0  0  0  0  0
    2.8579    3.3000    0.0000 O   0  0  0  0  0  0  0  0  0  0  0  0
    3.5724    2.0625    0.0000 C   0  0  0  0  0  0  0  0  0  0  0  0
    4.2868    2.4750    0.0000 C   0  0  0  0  0  0  0  0  0  0  0  0
   -0.7145    2.0625    0.0000 C   0  0  0  0  0  0  0  0  0  0  0  0
   -1.4289    2.4750    0.0000 C   0  0  0  0  0  0  0  0  0  0  0  0
   -2.1434    2.0625    0.0000 C   0  0  0  0  0  0  0  0  0  0  0  0
   -2.8579    2.4750    0.0000 O   0  0  0  0  0  0  0  0  0  0  0  0
   -2.1434    1.2375    0.0000 O   0  0  0  0  0  0  0  0  0  0  0  0
   -2.8579    0.8250    0.0000 C   0  0  0  0  0  0  0  0  0  0  0  0
   -2.8579    3.3000    0.0000 C   0  0  0  0  0  0  0  0  0  0  0  0
  1  2  1  0  0  0  0
  2  3  1  0  0  0  0
  3  4  1  0  0  0  0
  4  5  4  0  0  0  0
  5  6  4  0  0  0  0
  6  7  4  0  0  0  0
  7  8  4  0  0  0  0
  8  9  1  0  0  0  0
  9 10  4  0  0  0  0
 10 11  4  0  0  0  0
 11 12  4  0  0  0  0
 12 13  1  0  0  0  0
 13 14  1  0  0  0  0
 14 15  2  0  0  0  0
 14 16  1  0  0  0  0
 16 17  1  0  0  0  0
 17 18  3  0  0  0  0
 16 19  1  0  0  0  0
 19 20  2  0  0  0  0
 19 21  1  0  0  0  0
 21 22  1  0  0  0  0
 12 23  4  0  0  0  0
 23 24  4  0  0  0  0
  9 24  4  0  0  0  0
 24 25  1  0  0  0  0
 25 26  2  0  0  0  0
 25 27  1  0  0  0  0
 27 28  1  0  0  0  0
  8 29  4  0  0  0  0
  4 29  4  0  0  0  0
M  END
> <IC50(uM)>
0.059

> <Outcome>
1.0

> <BindingDB ID>
50707383

> <BindingDB MonomerID>
50359704

> <BindingDB Ligand Name>
CHEMBL1929448

> <Curation/DataSource>
ChEMBL

> <Article DOI>
10.1016/j.bmcl.2011.10.052

> <PMID>
22078215

> <Patent Number>
?

> <Authors>
Erra, M; Moreno, I; Sanahuja, J; Andres, M; Reinoso, RF; Lozoya, E; Pizcueta, P; Godessart, N; Castro-Palomino, JC

> <Link to Ligand in BindingDB>
http://www.bindingdb.org/bind/chemsearch/marvin/MolStructure.jsp?monomerid=50359704

> <Link to Ligand-Target Pair in BindingDB>
http://www.bindingdb.org/jsp/dbsearch/PrimarySearch_ki.jsp?energyterm=kJ/mole&tag=r21&monomerid=50359704&enzyme=Dihydroorotate+dehydrogenase&column=ki&startPg=0&Increment=50&submit=Search

> <PubChem CID>
91930452

> <PubChem SID>
136963728

$$$$

  Mrv2115 07222212352D          

 30 33  0  0  0  0            999 V2000
    5.0013   11.2651    0.0000 C   0  0  0  0  0  0  0  0  0  0  0  0
    5.0013   10.4401    0.0000 C   0  0  0  0  0  0  0  0  0  0  0  0
    4.2868   10.0276    0.0000 O   0  0  0  0  0  0  0  0  0  0  0  0
    4.2868    9.2026    0.0000 C   0  0  0  0  0  0  0  0  0  0  0  0
    5.0013    8.7901    0.0000 C   0  0  0  0  0  0  0  0  0  0  0  0
    5.0013    7.9651    0.0000 C   0  0  0  0  0  0  0  0  0  0  0  0
    4.2868    7.5526    0.0000 C   0  0  0  0  0  0  0  0  0  0  0  0
    3.5724    7.9651    0.0000 C   0  0  0  0  0  0  0  0  0  0  0  0
    2.8579    7.5526    0.0000 C   0  0  0  0  0  0  0  0  0  0  0  0
    2.1434    7.9651    0.0000 C   0  0  0  0  0  0  0  0  0  0  0  0
    1.4289    7.5526    0.0000 C   0  0  0  0  0  0  0  0  0  0  0  0
    0.7145    7.9651    0.0000 F   0  0  0  0  0  0  0  0  0  0  0  0
    1.4289    6.7276    0.0000 C   0  0  0  0  0  0  0  0  0  0  0  0
    0.7145    6.3151    0.0000 N   0  0  0  0  0  0  0  0  0  0  0  0
    0.7145    5.4901    0.0000 C   0  0  0  0  0  0  0  0  0  0  0  0
    1.4289    5.0776    0.0000 N   0  0  0  0  0  0  0  0  0  0  0  0
    1.4289    4.2526    0.0000 C   0  0  0  0  0  0  0  0  0  0  0  0
    0.7145    3.8401    0.0000 C   0  0  0  0  0  0  0  0  0  0  0  0
    0.7145    3.0151    0.0000 C   0  0  0  0  0  0  0  0  0  0  0  0
    1.1270    2.3007    0.0000 C   0  0  0  0  0  0  0  0  0  0  0  0
    0.3020    2.3007    0.0000 C   0  0  0  0  0  0  0  0  0  0  0  0
    0.0000    4.2526    0.0000 C   0  0  0  0  0  0  0  0  0  0  0  0
    0.0000    5.0776    0.0000 C   0  0  0  0  0  0  0  0  0  0  0  0
   -0.7145    5.4901    0.0000 C   0  0  0  0  0  0  0  0  0  0  0  0
   -0.7145    6.3151    0.0000 O   0  0  0  0  0  0  0  0  0  0  0  0
   -1.4289    5.0776    0.0000 O   0  0  0  0  0  0  0  0  0  0  0  0
    2.1434    6.3151    0.0000 C   0  0  0  0  0  0  0  0  0  0  0  0
    2.8579    6.7276    0.0000 C   0  0  0  0  0  0  0  0  0  0  0  0
    3.5724    6.3151    0.0000 F   0  0  0  0  0  0  0  0  0  0  0  0
    3.5724    8.7901    0.0000 C   0  0  0  0  0  0  0  0  0  0  0  0
  1  2  1  0  0  0  0
  2  3  1  0  0  0  0
  3  4  1  0  0  0  0
  4  5  4  0  0  0  0
  5  6  4  0  0  0  0
  6  7  4  0  0  0  0
  7  8  4  0  0  0  0
  8  9  1  0  0  0  0
  9 10  4  0  0  0  0
 10 11  4  0  0  0  0
 11 12  1  0  0  0  0
 11 13  4  0  0  0  0
 13 14  1  0  0  0  0
 14 15  1  0  0  0  0
 15 16  4  0  0  0  0
 16 17  4  0  0  0  0
 17 18  4  0  0  0  0
 18 19  1  0  0  0  0
 19 20  1  0  0  0  0
 20 21  1  0  0  0  0
 19 21  1  0  0  0  0
 18 22  4  0  0  0  0
 22 23  4  0  0  0  0
 15 23  4  0  0  0  0
 23 24  1  0  0  0  0
 24 25  2  0  0  0  0
 24 26  1  0  0  0  0
 13 27  4  0  0  0  0
 27 28  4  0  0  0  0
  9 28  4  0  0  0  0
 28 29  1  0  0  0  0
  8 30  4  0  0  0  0
  4 30  4  0  0  0  0
M  END
> <IC50(uM)>
0.023

> <Outcome>
1.0

> <BindingDB ID>
246914; 51186827

> <BindingDB MonomerID>
119821

> <BindingDB Ligand Name>
US8691852, 42

> <Curation/DataSource>
US Patent; ChEMBL

> <Article DOI>
?; 10.1007/s00044-011-9837-4

> <PMID>
?

> <Patent Number>
US8691852; ?

> <Authors>
Castro Palomino Laria, JC; Erra Sola, M; Lozoya Toribio, ME; Navarro Romero, E; n/a

> <Link to Ligand in BindingDB>
http://www.bindingdb.org/bind/chemsearch/marvin/MolStructure.jsp?monomerid=119821

> <Link to Ligand-Target Pair in BindingDB>
http://www.bindingdb.org/jsp/dbsearch/PrimarySearch_ki.jsp?energyterm=kJ/mole&tag=r21&monomerid=119821&enzyme=Dihydroorotate+dehydrogenase&column=ki&startPg=0&Increment=50&submit=Search

> <PubChem CID>
24988664

> <PubChem SID>
220230615

$$$$

  Mrv2115 07222212352D          

 26 29  0  0  0  0            999 V2000
    4.0668    2.3479    0.0000 C   0  0  0  0  0  0  0  0  0  0  0  0
    3.3523    1.9354    0.0000 C   0  0  0  0  0  0  0  0  0  0  0  0
    3.3523    1.1104    0.0000 C   0  0  0  0  0  0  0  0  0  0  0  0
    2.6378    0.6979    0.0000 C   0  0  0  0  0  0  0  0  0  0  0  0
    2.6378   -0.1271    0.0000 N   0  0  0  0  0  0  0  0  0  0  0  0
    3.3523   -0.5396    0.0000 C   0  0  0  0  0  0  0  0  0  0  0  0
    3.3523   -1.3646    0.0000 C   0  0  0  0  0  0  0  0  0  0  0  0
    4.0668   -1.7771    0.0000 C   0  0  0  0  0  0  0  0  0  0  0  0
    4.0668   -2.6021    0.0000 C   0  0  0  0  0  0  0  0  0  0  0  0
    3.3523   -3.0146    0.0000 C   0  0  0  0  0  0  0  0  0  0  0  0
    2.6378   -2.6021    0.0000 C   0  0  0  0  0  0  0  0  0  0  0  0
    2.6378   -1.7771    0.0000 C   0  0  0  0  0  0  0  0  0  0  0  0
    1.9233    1.1104    0.0000 N   0  0  0  0  0  0  0  0  0  0  0  0
    1.1387    0.8555    0.0000 N   0  0  0  0  0  0  0  0  0  0  0  0
    0.6538    1.5229    0.0000 C   0  0  0  0  0  0  0  0  0  0  0  0
   -0.1712    1.5229    0.0000 S   0  0  0  0  0  0  0  0  0  0  0  0
   -0.5837    0.8085    0.0000 C   0  0  0  0  0  0  0  0  0  0  0  0
   -1.4087    0.8085    0.0000 C   0  0  0  0  0  0  0  0  0  0  0  0
   -1.8212    0.0940    0.0000 C   0  0  0  0  0  0  0  0  0  0  0  0
   -2.6462    0.0940    0.0000 C   0  0  0  0  0  0  0  0  0  0  0  0
   -3.0587    0.8085    0.0000 C   0  0  0  0  0  0  0  0  0  0  0  0
   -2.6462    1.5229    0.0000 C   0  0  0  0  0  0  0  0  0  0  0  0
   -1.8212    1.5229    0.0000 C   0  0  0  0  0  0  0  0  0  0  0  0
    1.1387    2.1904    0.0000 N   0  0  0  0  0  0  0  0  0  0  0  0
    1.9233    1.9354    0.0000 C   0  0  0  0  0  0  0  0  0  0  0  0
    2.6378    2.3479    0.0000 N   0  0  0  0  0  0  0  0  0  0  0  0
  1  2  1  0  0  0  0
  2  3  4  0  0  0  0
  3  4  4  0  0  0  0
  4  5  1  0  0  0  0
  5  6  1  0  0  0  0
  6  7  1  0  0  0  0
  7  8  4  0  0  0  0
  8  9  4  0  0  0  0
  9 10  4  0  0  0  0
 10 11  4  0  0  0  0
 11 12  4  0  0  0  0
  7 12  4  0  0  0  0
  4 13  4  0  0  0  0
 13 14  4  0  0  0  0
 14 15  4  0  0  0  0
 15 16  1  0  0  0  0
 16 17  1  0  0  0  0
 17 18  1  0  0  0  0
 18 19  4  0  0  0  0
 19 20  4  0  0  0  0
 20 21  4  0  0  0  0
 21 22  4  0  0  0  0
 22 23  4  0  0  0  0
 18 23  4  0  0  0  0
 15 24  4  0  0  0  0
 24 25  4  0  0  0  0
 13 25  4  0  0  0  0
 25 26  4  0  0  0  0
  2 26  4  0  0  0  0
M  END
> <IC50(uM)>
100.0

> <Outcome>
0.0

> <BindingDB ID>
50970240

> <BindingDB MonomerID>
50397813

> <BindingDB Ligand Name>
CHEMBL2178512

> <Curation/DataSource>
ChEMBL

> <Article DOI>
10.1021/jm300157n

> <PMID>
22621375

> <Patent Number>
?

> <Authors>
Bedingfield, PT; Cowen, D; Acklam, P; Cunningham, F; Parsons, MR; McConkey, GA; Fishwick, CW; Johnson, AP

> <Link to Ligand in BindingDB>
http://www.bindingdb.org/bind/chemsearch/marvin/MolStructure.jsp?monomerid=50397813

> <Link to Ligand-Target Pair in BindingDB>
http://www.bindingdb.org/jsp/dbsearch/PrimarySearch_ki.jsp?energyterm=kJ/mole&tag=r21&monomerid=50397813&enzyme=Dihydroorotate+dehydrogenase&column=ki&startPg=0&Increment=50&submit=Search

> <PubChem CID>
60166620

> <PubChem SID>
163346837

$$$$

  Mrv2115 07222212352D          

 36 39  0  0  0  0            999 V2000
    0.7145   -3.7125    0.0000 C   0  0  0  0  0  0  0  0  0  0  0  0
    1.4289   -4.1250    0.0000 C   0  0  0  0  0  0  0  0  0  0  0  0
    1.4289   -4.9500    0.0000 C   0  0  0  0  0  0  0  0  0  0  0  0
    2.0964   -5.4349    0.0000 N   0  0  0  0  0  0  0  0  0  0  0  0
    1.8414   -6.2195    0.0000 N   0  0  0  0  0  0  0  0  0  0  0  0
    2.3264   -6.8870    0.0000 C   0  0  0  0  0  0  0  0  0  0  0  0
    3.1468   -6.8007    0.0000 C   0  0  0  0  0  0  0  0  0  0  0  0
    3.6318   -7.4682    0.0000 C   0  0  0  0  0  0  0  0  0  0  0  0
    4.4522   -7.3820    0.0000 O   0  0  0  0  0  0  0  0  0  0  0  0
    4.7878   -6.6283    0.0000 C   0  0  0  0  0  0  0  0  0  0  0  0
    4.3029   -5.9608    0.0000 C   0  0  0  0  0  0  0  0  0  0  0  0
    5.6083   -6.5420    0.0000 C   0  0  0  0  0  0  0  0  0  0  0  0
    5.9438   -5.7884    0.0000 C   0  0  0  0  0  0  0  0  0  0  0  0
    6.7643   -5.7021    0.0000 C   0  0  0  0  0  0  0  0  0  0  0  0
    7.2492   -6.3696    0.0000 C   0  0  0  0  0  0  0  0  0  0  0  0
    6.9137   -7.1232    0.0000 C   0  0  0  0  0  0  0  0  0  0  0  0
    6.0932   -7.2095    0.0000 C   0  0  0  0  0  0  0  0  0  0  0  0
    3.2962   -8.2219    0.0000 C   0  0  0  0  0  0  0  0  0  0  0  0
    3.7811   -8.8893    0.0000 C   0  0  0  0  0  0  0  0  0  0  0  0
    3.4456   -9.6430    0.0000 O   0  0  0  0  0  0  0  0  0  0  0  0
    4.6016   -8.8031    0.0000 N   0  0  0  0  0  0  0  0  0  0  0  0
    5.0865   -9.4705    0.0000 C   0  0  0  0  0  0  0  0  0  0  0  0
    5.9070   -9.3843    0.0000 C   0  0  0  0  0  0  0  0  0  0  0  0
    6.3919  -10.0517    0.0000 C   0  0  0  0  0  0  0  0  0  0  0  0
    6.0564  -10.8054    0.0000 C   0  0  0  0  0  0  0  0  0  0  0  0
    6.5413  -11.4728    0.0000 S   0  0  0  0  0  0  0  0  0  0  0  0
    7.3618  -11.3866    0.0000 C   0  0  0  0  0  0  0  0  0  0  0  0
    5.2359  -10.8916    0.0000 C   0  0  0  0  0  0  0  0  0  0  0  0
    4.7510  -10.2242    0.0000 C   0  0  0  0  0  0  0  0  0  0  0  0
    2.4757   -8.3081    0.0000 C   0  0  0  0  0  0  0  0  0  0  0  0
    1.9908   -7.6407    0.0000 C   0  0  0  0  0  0  0  0  0  0  0  0
    1.1703   -7.7269    0.0000 F   0  0  0  0  0  0  0  0  0  0  0  0
    1.0164   -6.2195    0.0000 C   0  0  0  0  0  0  0  0  0  0  0  0
    0.5315   -6.8870    0.0000 O   0  0  0  0  0  0  0  0  0  0  0  0
    0.7615   -5.4349    0.0000 N   0  0  0  0  0  0  0  0  0  0  0  0
   -0.0231   -5.1800    0.0000 C   0  0  0  0  0  0  0  0  0  0  0  0
  1  2  1  0  0  0  0
  2  3  1  0  0  0  0
  3  4  4  0  0  0  0
  4  5  4  0  0  0  0
  5  6  1  0  0  0  0
  6  7  4  0  0  0  0
  7  8  4  0  0  0  0
  8  9  1  0  0  0  0
  9 10  1  0  0  0  0
 10 11  1  0  0  0  0
 10 12  1  0  0  0  0
 12 13  1  0  0  0  0
 13 14  1  0  0  0  0
 14 15  1  0  0  0  0
 15 16  1  0  0  0  0
 16 17  1  0  0  0  0
 12 17  1  0  0  0  0
  8 18  4  0  0  0  0
 18 19  1  0  0  0  0
 19 20  2  0  0  0  0
 19 21  1  0  0  0  0
 21 22  1  0  0  0  0
 22 23  4  0  0  0  0
 23 24  4  0  0  0  0
 24 25  4  0  0  0  0
 25 26  1  0  0  0  0
 26 27  1  0  0  0  0
 25 28  4  0  0  0  0
 28 29  4  0  0  0  0
 22 29  4  0  0  0  0
 18 30  4  0  0  0  0
 30 31  4  0  0  0  0
  6 31  4  0  0  0  0
 31 32  1  0  0  0  0
  5 33  4  0  0  0  0
 33 34  2  0  0  0  0
 33 35  4  0  0  0  0
  3 35  4  0  0  0  0
 35 36  1  0  0  0  0
M  END
> <IC50(uM)>
0.22

> <Outcome>
1.0

> <BindingDB ID>
1098817; 972663

> <BindingDB MonomerID>
470541

> <BindingDB Ligand Name>
2-[(1S)-1-cyclohexylethoxy]-4-(3-ethyl-4-methyl-5-oxo-4,5-dihydro-1H-1,2,4-triazol-1-yl)-5-fluoro-N-[4-(methylsulfanyl)phenyl]benzamide::US10815215, Example 201::US11130745, Example 201; 2-[(1S)-1-cyclohexylethoxy]-4-(3-ethyl-4-methyl-5-oxo-4,5-dihydro-1H-1,2,4-triazol-1-yl)-5-fluoro-N-[4-(methylsulfanyl)phenyl]benzamide::US10815215, Example 201

> <Curation/DataSource>
US Patent

> <Article DOI>
?

> <PMID>
?

> <Patent Number>
US11130745; US10815215

> <Authors>
Gradl, SN; Nguyen, D; Eis, K; Gunther, J; Stellfeld, T; Janzer, A; Christian, S; Muller, T; Sheikh, SE; Sykes, DB; Ferrara, SJ; Krober, M; Merz, C; Niehues, M; Schafer, M; Zimmermann, K; Nising, CF; Gradl, SN; Nguyen, D; Eis, K; Gunther, J; Stellfeld, T; Janzer, A; Christian, S; Muller, T; Sheikh, SE; Zhou, HJ; Zhao, C; Sykes, DB; Ferrara, SJ; Liu, K; Krober, M; Merz, C; Niehues, M; Schafer, M; Zimmermann, K; Nising, CF

> <Link to Ligand in BindingDB>
http://www.bindingdb.org/bind/chemsearch/marvin/MolStructure.jsp?monomerid=470541

> <Link to Ligand-Target Pair in BindingDB>
http://www.bindingdb.org/jsp/dbsearch/PrimarySearch_ki.jsp?energyterm=kJ/mole&tag=r21&monomerid=470541&enzyme=Dihydroorotate+dehydrogenase&column=ki&startPg=0&Increment=50&submit=Search

> <PubChem CID>
134469970

> <PubChem SID>
441609717

$$$$

  Mrv2115 07222212352D          

 22 24  0  0  0  0            999 V2000
    4.0668    2.3479    0.0000 C   0  0  0  0  0  0  0  0  0  0  0  0
    3.3523    1.9354    0.0000 C   0  0  0  0  0  0  0  0  0  0  0  0
    3.3523    1.1104    0.0000 C   0  0  0  0  0  0  0  0  0  0  0  0
    2.6378    0.6979    0.0000 C   0  0  0  0  0  0  0  0  0  0  0  0
    2.6378   -0.1271    0.0000 N   0  0  0  0  0  0  0  0  0  0  0  0
    3.3523   -0.5396    0.0000 C   0  0  0  0  0  0  0  0  0  0  0  0
    4.0668   -0.1271    0.0000 C   0  0  0  0  0  0  0  0  0  0  0  0
    4.7812   -0.5396    0.0000 C   0  0  0  0  0  0  0  0  0  0  0  0
    4.7812   -1.3646    0.0000 C   0  0  0  0  0  0  0  0  0  0  0  0
    5.4957   -1.7771    0.0000 Cl  0  0  0  0  0  0  0  0  0  0  0  0
    4.0668   -1.7771    0.0000 C   0  0  0  0  0  0  0  0  0  0  0  0
    3.3523   -1.3646    0.0000 C   0  0  0  0  0  0  0  0  0  0  0  0
    1.9233    1.1104    0.0000 N   0  0  0  0  0  0  0  0  0  0  0  0
    1.1387    0.8555    0.0000 N   0  0  0  0  0  0  0  0  0  0  0  0
    0.6538    1.5229    0.0000 C   0  0  0  0  0  0  0  0  0  0  0  0
   -0.1712    1.5229    0.0000 C   0  0  0  0  0  0  0  0  0  0  0  0
   -0.9962    1.5229    0.0000 C   0  0  0  0  0  0  0  0  0  0  0  0
   -0.1712    2.3479    0.0000 F   0  0  0  0  0  0  0  0  0  0  0  0
   -0.1712    0.6979    0.0000 F   0  0  0  0  0  0  0  0  0  0  0  0
    1.1387    2.1904    0.0000 N   0  0  0  0  0  0  0  0  0  0  0  0
    1.9233    1.9354    0.0000 C   0  0  0  0  0  0  0  0  0  0  0  0
    2.6378    2.3479    0.0000 N   0  0  0  0  0  0  0  0  0  0  0  0
  1  2  1  0  0  0  0
  2  3  4  0  0  0  0
  3  4  4  0  0  0  0
  4  5  1  0  0  0  0
  5  6  1  0  0  0  0
  6  7  4  0  0  0  0
  7  8  4  0  0  0  0
  8  9  4  0  0  0  0
  9 10  1  0  0  0  0
  9 11  4  0  0  0  0
 11 12  4  0  0  0  0
  6 12  4  0  0  0  0
  4 13  4  0  0  0  0
 13 14  4  0  0  0  0
 14 15  4  0  0  0  0
 15 16  1  0  0  0  0
 16 17  1  0  0  0  0
 16 18  1  0  0  0  0
 16 19  1  0  0  0  0
 15 20  4  0  0  0  0
 20 21  4  0  0  0  0
 13 21  4  0  0  0  0
 21 22  4  0  0  0  0
  2 22  4  0  0  0  0
M  END
> <IC50(uM)>
100.0

> <Outcome>
0.0

> <BindingDB ID>
50720162

> <BindingDB MonomerID>
50365232

> <BindingDB Ligand Name>
CHEMBL1956283::US9238653, Table 5, Compound 54

> <Curation/DataSource>
ChEMBL

> <Article DOI>
10.1021/jm200592f

> <PMID>
21696174

> <Patent Number>
?

> <Authors>
Coteron, JM; Marco, M; Esquivias, J; Deng, X; White, KL; White, J; Koltun, M; El Mazouni, F; Kokkonda, S; Katneni, K; Bhamidipati, R; Shackleford, DM; Angulo-Barturen, I; Ferrer, SB; Jimenez-Diaz, MB; Gamo, FJ; Goldsmith, EJ; Charman, WN; Bathurst, I; Floyd, D; Matthews, D; Burrows, JN; Rathod, PK; Charman, SA; Phillips, MA

> <Link to Ligand in BindingDB>
http://www.bindingdb.org/bind/chemsearch/marvin/MolStructure.jsp?monomerid=50365232

> <Link to Ligand-Target Pair in BindingDB>
http://www.bindingdb.org/jsp/dbsearch/PrimarySearch_ki.jsp?energyterm=kJ/mole&tag=r21&monomerid=50365232&enzyme=Dihydroorotate+dehydrogenase&column=ki&startPg=0&Increment=50&submit=Search

> <PubChem CID>
51347101

> <PubChem SID>
136969294

$$$$

  Mrv2115 07222212352D          

 28 29  0  0  0  0            999 V2000
    1.4289   -6.6000    0.0000 C   0  0  0  0  0  0  0  0  0  0  0  0
    2.1434   -6.1875    0.0000 C   0  0  0  0  0  0  0  0  0  0  0  0
    2.8579   -6.6000    0.0000 C   0  0  0  0  0  0  0  0  0  0  0  0
    2.8579   -7.4250    0.0000 O   0  0  0  0  0  0  0  0  0  0  0  0
    3.5724   -6.1875    0.0000 C   0  0  0  0  0  0  0  0  0  0  0  0
    3.5724   -5.3625    0.0000 C   0  0  0  0  0  0  0  0  0  0  0  0
    3.5724   -4.5375    0.0000 N   0  0  0  0  0  0  0  0  0  0  0  0
    4.2868   -6.6000    0.0000 C   0  0  0  0  0  0  0  0  0  0  0  0
    4.2868   -7.4250    0.0000 O   0  0  0  0  0  0  0  0  0  0  0  0
    5.0013   -6.1875    0.0000 N   0  0  0  0  0  0  0  0  0  0  0  0
    5.7158   -6.6000    0.0000 C   0  0  0  0  0  0  0  0  0  0  0  0
    6.4302   -6.1875    0.0000 C   0  0  0  0  0  0  0  0  0  0  0  0
    7.1447   -6.6000    0.0000 C   0  0  0  0  0  0  0  0  0  0  0  0
    7.1447   -7.4250    0.0000 C   0  0  0  0  0  0  0  0  0  0  0  0
    7.8592   -7.8375    0.0000 C   0  0  0  0  0  0  0  0  0  0  0  0
    8.5737   -7.4250    0.0000 C   0  0  0  0  0  0  0  0  0  0  0  0
    9.2881   -7.8375    0.0000 C   0  0  0  0  0  0  0  0  0  0  0  0
    9.2881   -8.6625    0.0000 C   0  0  0  0  0  0  0  0  0  0  0  0
   10.0026   -9.0750    0.0000 F   0  0  0  0  0  0  0  0  0  0  0  0
    8.5737   -9.0750    0.0000 C   0  0  0  0  0  0  0  0  0  0  0  0
    8.5737   -9.9000    0.0000 F   0  0  0  0  0  0  0  0  0  0  0  0
    7.8592   -8.6625    0.0000 C   0  0  0  0  0  0  0  0  0  0  0  0
    6.4302   -7.8375    0.0000 C   0  0  0  0  0  0  0  0  0  0  0  0
    6.4302   -8.6625    0.0000 C   0  0  0  0  0  0  0  0  0  0  0  0
    5.7158   -9.0750    0.0000 O   0  0  0  0  0  0  0  0  0  0  0  0
    7.1447   -9.0750    0.0000 O   0  0  0  0  0  0  0  0  0  0  0  0
    7.1447   -9.9000    0.0000 C   0  0  0  0  0  0  0  0  0  0  0  0
    5.7158   -7.4250    0.0000 C   0  0  0  0  0  0  0  0  0  0  0  0
  1  2  1  0  0  0  0
  2  3  1  0  0  0  0
  3  4  2  0  0  0  0
  3  5  1  0  0  0  0
  5  6  1  0  0  0  0
  6  7  3  0  0  0  0
  5  8  1  0  0  0  0
  8  9  2  0  0  0  0
  8 10  1  0  0  0  0
 10 11  1  0  0  0  0
 11 12  4  0  0  0  0
 12 13  4  0  0  0  0
 13 14  4  0  0  0  0
 14 15  1  0  0  0  0
 15 16  4  0  0  0  0
 16 17  4  0  0  0  0
 17 18  4  0  0  0  0
 18 19  1  0  0  0  0
 18 20  4  0  0  0  0
 20 21  1  0  0  0  0
 20 22  4  0  0  0  0
 15 22  4  0  0  0  0
 14 23  4  0  0  0  0
 23 24  1  0  0  0  0
 24 25  2  0  0  0  0
 24 26  1  0  0  0  0
 26 27  1  0  0  0  0
 23 28  4  0  0  0  0
 11 28  4  0  0  0  0
M  END
> <IC50(uM)>
0.097

> <Outcome>
1.0

> <BindingDB ID>
50707380

> <BindingDB MonomerID>
50359701

> <BindingDB Ligand Name>
CHEMBL1929445

> <Curation/DataSource>
ChEMBL

> <Article DOI>
10.1016/j.bmcl.2011.10.052

> <PMID>
22078215

> <Patent Number>
?

> <Authors>
Erra, M; Moreno, I; Sanahuja, J; Andres, M; Reinoso, RF; Lozoya, E; Pizcueta, P; Godessart, N; Castro-Palomino, JC

> <Link to Ligand in BindingDB>
http://www.bindingdb.org/bind/chemsearch/marvin/MolStructure.jsp?monomerid=50359701

> <Link to Ligand-Target Pair in BindingDB>
http://www.bindingdb.org/jsp/dbsearch/PrimarySearch_ki.jsp?energyterm=kJ/mole&tag=r21&monomerid=50359701&enzyme=Dihydroorotate+dehydrogenase&column=ki&startPg=0&Increment=50&submit=Search

> <PubChem CID>
91930449

> <PubChem SID>
136963725

$$$$

  Mrv2115 07222212352D          

 20 22  0  0  0  0            999 V2000
    0.7145   -6.1875    0.0000 O   0  0  0  0  0  0  0  0  0  0  0  0
    0.7145   -5.3625    0.0000 C   0  0  0  0  0  0  0  0  0  0  0  0
    0.0000   -4.9500    0.0000 C   0  0  0  0  0  0  0  0  0  0  0  0
    0.0000   -4.1250    0.0000 C   0  0  0  0  0  0  0  0  0  0  0  0
    0.7145   -3.7125    0.0000 C   0  0  0  0  0  0  0  0  0  0  0  0
    0.7145   -2.8875    0.0000 C   0  0  0  0  0  0  0  0  0  0  0  0
    1.4289   -2.4750    0.0000 N   0  0  0  0  0  0  0  0  0  0  0  0
    1.4289   -1.6500    0.0000 C   0  0  0  0  0  0  0  0  0  0  0  0
    0.7145   -1.2375    0.0000 C   0  0  0  0  0  0  0  0  0  0  0  0
    0.7145   -0.4125    0.0000 C   0  0  0  0  0  0  0  0  0  0  0  0
    1.4289    0.0000    0.0000 C   0  0  0  0  0  0  0  0  0  0  0  0
    2.1434   -0.4125    0.0000 C   0  0  0  0  0  0  0  0  0  0  0  0
    2.8579    0.0000    0.0000 C   0  0  0  0  0  0  0  0  0  0  0  0
    3.5724   -0.4125    0.0000 C   0  0  0  0  0  0  0  0  0  0  0  0
    3.5724   -1.2375    0.0000 C   0  0  0  0  0  0  0  0  0  0  0  0
    2.8579   -1.6500    0.0000 C   0  0  0  0  0  0  0  0  0  0  0  0
    2.1434   -1.2375    0.0000 C   0  0  0  0  0  0  0  0  0  0  0  0
    1.4289   -4.1250    0.0000 C   0  0  0  0  0  0  0  0  0  0  0  0
    2.1434   -3.7125    0.0000 O   0  0  0  0  0  0  0  0  0  0  0  0
    1.4289   -4.9500    0.0000 C   0  0  0  0  0  0  0  0  0  0  0  0
  1  2  1  0  0  0  0
  2  3  4  0  0  0  0
  3  4  4  0  0  0  0
  4  5  4  0  0  0  0
  5  6  1  0  0  0  0
  6  7  2  0  0  0  0
  7  8  1  0  0  0  0
  8  9  4  0  0  0  0
  9 10  4  0  0  0  0
 10 11  4  0  0  0  0
 11 12  4  0  0  0  0
 12 13  4  0  0  0  0
 13 14  4  0  0  0  0
 14 15  4  0  0  0  0
 15 16  4  0  0  0  0
 16 17  4  0  0  0  0
  8 17  4  0  0  0  0
 12 17  4  0  0  0  0
  5 18  4  0  0  0  0
 18 19  1  0  0  0  0
 18 20  4  0  0  0  0
  2 20  4  0  0  0  0
M  END
> <IC50(uM)>
0.78

> <Outcome>
1.0

> <BindingDB ID>
50971943

> <BindingDB MonomerID>
50398646

> <BindingDB Ligand Name>
CHEMBL2178107

> <Curation/DataSource>
ChEMBL

> <Article DOI>
10.1021/jm300630p

> <PMID>
22984987

> <Patent Number>
?

> <Authors>
Diao, Y; Lu, W; Jin, H; Zhu, J; Han, L; Xu, M; Gao, R; Shen, X; Zhao, Z; Liu, X; Xu, Y; Huang, J; Li, H

> <Link to Ligand in BindingDB>
http://www.bindingdb.org/bind/chemsearch/marvin/MolStructure.jsp?monomerid=50398646

> <Link to Ligand-Target Pair in BindingDB>
http://www.bindingdb.org/jsp/dbsearch/PrimarySearch_ki.jsp?energyterm=kJ/mole&tag=r21&monomerid=50398646&enzyme=Dihydroorotate+dehydrogenase&column=ki&startPg=0&Increment=50&submit=Search

> <PubChem CID>
5410766

> <PubChem SID>
163347670

$$$$

  Mrv2115 07222212352D          

 34 37  0  0  0  0            999 V2000
   -5.1659    1.4455    0.0000 C   0  0  0  0  0  0  0  0  0  0  0  0
   -4.3409    1.4455    0.0000 C   0  0  0  0  0  0  0  0  0  0  0  0
   -3.9284    2.1599    0.0000 C   0  0  0  0  0  0  0  0  0  0  0  0
   -3.1034    2.1599    0.0000 C   0  0  0  0  0  0  0  0  0  0  0  0
   -2.6909    1.4455    0.0000 N   0  0  0  0  0  0  0  0  0  0  0  0
   -3.1034    0.7310    0.0000 C   0  0  0  0  0  0  0  0  0  0  0  0
   -3.9284    0.7310    0.0000 C   0  0  0  0  0  0  0  0  0  0  0  0
   -4.3409    0.0165    0.0000 N   0  0  0  0  0  0  0  0  0  0  0  0
   -3.9284   -0.6979    0.0000 C   0  0  0  0  0  0  0  0  0  0  0  0
   -4.3409   -1.4124    0.0000 O   0  0  0  0  0  0  0  0  0  0  0  0
   -3.1034   -0.6979    0.0000 C   0  0  0  0  0  0  0  0  0  0  0  0
   -2.6909    0.0165    0.0000 C   0  0  0  0  0  0  0  0  0  0  0  0
   -1.8659    0.0165    0.0000 C   0  0  0  0  0  0  0  0  0  0  0  0
   -1.4534    0.7310    0.0000 F   0  0  0  0  0  0  0  0  0  0  0  0
   -1.4534   -0.6979    0.0000 C   0  0  0  0  0  0  0  0  0  0  0  0
   -0.6284   -0.6979    0.0000 N   0  0  0  0  0  0  0  0  0  0  0  0
   -0.1435   -1.3654    0.0000 N   0  0  0  0  0  0  0  0  0  0  0  0
    0.6411   -1.1104    0.0000 C   0  0  0  0  0  0  0  0  0  0  0  0
    0.6411   -0.2854    0.0000 N   0  0  0  0  0  0  0  0  0  0  0  0
   -0.1435   -0.0305    0.0000 C   0  0  0  0  0  0  0  0  0  0  0  0
   -0.3984    0.7541    0.0000 O   0  0  0  0  0  0  0  0  0  0  0  0
    1.3556    0.1271    0.0000 C   0  0  0  0  0  0  0  0  0  0  0  0
    2.0701   -0.2854    0.0000 C   0  0  0  0  0  0  0  0  0  0  0  0
    2.0701   -1.1104    0.0000 O   0  0  0  0  0  0  0  0  0  0  0  0
    1.3556   -1.5229    0.0000 C   0  0  0  0  0  0  0  0  0  0  0  0
   -1.8659   -1.4124    0.0000 C   0  0  0  0  0  0  0  0  0  0  0  0
   -2.6909   -1.4124    0.0000 C   0  0  0  0  0  0  0  0  0  0  0  0
   -3.1034   -2.1269    0.0000 O   0  0  0  0  0  0  0  0  0  0  0  0
   -2.6909   -2.8414    0.0000 C   0  0  0  0  0  0  0  0  0  0  0  0
   -1.8659   -2.8414    0.0000 C   0  0  0  0  0  0  0  0  0  0  0  0
   -3.1034   -3.5558    0.0000 C   0  0  0  0  0  0  0  0  0  0  0  0
   -3.8179   -3.1433    0.0000 F   0  0  0  0  0  0  0  0  0  0  0  0
   -2.3890   -3.9683    0.0000 F   0  0  0  0  0  0  0  0  0  0  0  0
   -3.5159   -4.2703    0.0000 F   0  0  0  0  0  0  0  0  0  0  0  0
  1  2  1  0  0  0  0
  2  3  4  0  0  0  0
  3  4  4  0  0  0  0
  4  5  4  0  0  0  0
  5  6  4  0  0  0  0
  6  7  4  0  0  0  0
  2  7  4  0  0  0  0
  7  8  1  0  0  0  0
  8  9  1  0  0  0  0
  9 10  2  0  0  0  0
  9 11  1  0  0  0  0
 11 12  4  0  0  0  0
 12 13  4  0  0  0  0
 13 14  1  0  0  0  0
 13 15  4  0  0  0  0
 15 16  1  0  0  0  0
 16 17  4  0  0  0  0
 17 18  4  0  0  0  0
 18 19  4  0  0  0  0
 19 20  4  0  0  0  0
 16 20  4  0  0  0  0
 20 21  2  0  0  0  0
 19 22  1  0  0  0  0
 22 23  1  0  0  0  0
 23 24  1  0  0  0  0
 24 25  1  0  0  0  0
 18 25  1  0  0  0  0
 15 26  4  0  0  0  0
 26 27  4  0  0  0  0
 11 27  4  0  0  0  0
 27 28  1  0  0  0  0
 28 29  1  0  0  0  0
 29 30  1  0  0  0  0
 29 31  1  0  0  0  0
 31 32  1  0  0  0  0
 31 33  1  0  0  0  0
 31 34  1  0  0  0  0
M  END
> <IC50(uM)>
0.7

> <Outcome>
1.0

> <BindingDB ID>
1020575

> <BindingDB MonomerID>
490514

> <BindingDB Ligand Name>
5-fluoro-N-(4-methylpyridin-3-yl)-4-(3-oxo-5,6-dihydro-3H-[1,2,4]triazolo[3,4-c][1,4]oxazin-2(8H)-yl)-2-{[(2S)-1,1,1-trifluoropropan-2-yl]oxy}benzamide::US10968216, Example 182

> <Curation/DataSource>
US Patent

> <Article DOI>
?

> <PMID>
?

> <Patent Number>
US10968216

> <Authors>
Gradl, SN; Nguyen, D; Eis, K; Gunther, J; Stellfeld, T; Janzer, A; Christian, S; Mueller, T; Sheikh, SE; Zhou, HJ; Zhao, C; Sykes, DB; Ferrara, SJ; Liu, K; Herbert, SA; Merz, C; Niehues, M; Nising, CF; Schafer, M; Zimmermann, K; Knablein, J; Thede, K; Faupel, T

> <Link to Ligand in BindingDB>
http://www.bindingdb.org/bind/chemsearch/marvin/MolStructure.jsp?monomerid=490514

> <Link to Ligand-Target Pair in BindingDB>
http://www.bindingdb.org/jsp/dbsearch/PrimarySearch_ki.jsp?energyterm=kJ/mole&tag=r21&monomerid=490514&enzyme=Dihydroorotate+dehydrogenase&column=ki&startPg=0&Increment=50&submit=Search

> <PubChem CID>
134474032

> <PubChem SID>
447117241

$$$$

  Mrv2115 07222212352D          

 33 35  0  0  0  0            999 V2000
    2.1434   -3.7125    0.0000 C   0  0  0  0  0  0  0  0  0  0  0  0
    2.8579   -4.1250    0.0000 C   0  0  0  0  0  0  0  0  0  0  0  0
    3.5724   -3.7125    0.0000 C   0  0  0  0  0  0  0  0  0  0  0  0
    4.2868   -4.1250    0.0000 C   0  0  0  0  0  0  0  0  0  0  0  0
    4.2868   -4.9500    0.0000 C   0  0  0  0  0  0  0  0  0  0  0  0
    5.0013   -3.7125    0.0000 O   0  0  0  0  0  0  0  0  0  0  0  0
    5.0013   -2.8875    0.0000 C   0  0  0  0  0  0  0  0  0  0  0  0
    4.2868   -2.4750    0.0000 C   0  0  0  0  0  0  0  0  0  0  0  0
    4.2868   -1.6500    0.0000 C   0  0  0  0  0  0  0  0  0  0  0  0
    3.5724   -1.2375    0.0000 N   0  0  0  0  0  0  0  0  0  0  0  0
    2.8187   -1.5731    0.0000 N   0  0  0  0  0  0  0  0  0  0  0  0
    2.2666   -0.9600    0.0000 C   0  0  0  0  0  0  0  0  0  0  0  0
    1.4462   -1.0462    0.0000 C   0  0  0  0  0  0  0  0  0  0  0  0
    1.1106   -1.7999    0.0000 C   0  0  0  0  0  0  0  0  0  0  0  0
    0.9612   -0.3788    0.0000 O   0  0  0  0  0  0  0  0  0  0  0  0
    2.6791   -0.2455    0.0000 N   0  0  0  0  0  0  0  0  0  0  0  0
    2.3436    0.5082    0.0000 C   0  0  0  0  0  0  0  0  0  0  0  0
    3.4861   -0.4170    0.0000 C   0  0  0  0  0  0  0  0  0  0  0  0
    4.0992    0.1350    0.0000 O   0  0  0  0  0  0  0  0  0  0  0  0
    5.0013   -1.2375    0.0000 C   0  0  0  0  0  0  0  0  0  0  0  0
    5.0013   -0.4125    0.0000 F   0  0  0  0  0  0  0  0  0  0  0  0
    5.7158   -1.6500    0.0000 C   0  0  0  0  0  0  0  0  0  0  0  0
    5.7158   -2.4750    0.0000 C   0  0  0  0  0  0  0  0  0  0  0  0
    6.4302   -2.8875    0.0000 C   0  0  0  0  0  0  0  0  0  0  0  0
    6.4302   -3.7125    0.0000 O   0  0  0  0  0  0  0  0  0  0  0  0
    7.1447   -2.4750    0.0000 N   0  0  0  0  0  0  0  0  0  0  0  0
    7.8592   -2.8875    0.0000 C   0  0  0  0  0  0  0  0  0  0  0  0
    8.5737   -2.4750    0.0000 C   0  0  0  0  0  0  0  0  0  0  0  0
    9.2881   -2.8875    0.0000 C   0  0  0  0  0  0  0  0  0  0  0  0
    9.2881   -3.7125    0.0000 C   0  0  0  0  0  0  0  0  0  0  0  0
    8.5737   -4.1250    0.0000 C   0  0  0  0  0  0  0  0  0  0  0  0
    7.8592   -3.7125    0.0000 C   0  0  0  0  0  0  0  0  0  0  0  0
    7.1447   -4.1250    0.0000 C   0  0  0  0  0  0  0  0  0  0  0  0
  1  2  1  0  0  0  0
  2  3  1  0  0  0  0
  3  4  1  0  0  0  0
  4  5  1  0  0  0  0
  4  6  1  0  0  0  0
  6  7  1  0  0  0  0
  7  8  4  0  0  0  0
  8  9  4  0  0  0  0
  9 10  1  0  0  0  0
 10 11  4  0  0  0  0
 11 12  4  0  0  0  0
 12 13  1  0  0  0  0
 13 14  1  0  0  0  0
 13 15  1  0  0  0  0
 12 16  4  0  0  0  0
 16 17  1  0  0  0  0
 16 18  4  0  0  0  0
 10 18  4  0  0  0  0
 18 19  2  0  0  0  0
  9 20  4  0  0  0  0
 20 21  1  0  0  0  0
 20 22  4  0  0  0  0
 22 23  4  0  0  0  0
  7 23  4  0  0  0  0
 23 24  1  0  0  0  0
 24 25  2  0  0  0  0
 24 26  1  0  0  0  0
 26 27  1  0  0  0  0
 27 28  4  0  0  0  0
 28 29  4  0  0  0  0
 29 30  4  0  0  0  0
 30 31  4  0  0  0  0
 31 32  4  0  0  0  0
 27 32  4  0  0  0  0
 32 33  1  0  0  0  0
M  END
> <IC50(uM)>
1.0

> <Outcome>
1.0

> <BindingDB ID>
1098698; 972544

> <BindingDB MonomerID>
470418

> <BindingDB Ligand Name>
US10815215, Example 82::US11130745, Example 82; US10815215, Example 82

> <Curation/DataSource>
US Patent

> <Article DOI>
?

> <PMID>
?

> <Patent Number>
US11130745; US10815215

> <Authors>
Gradl, SN; Nguyen, D; Eis, K; Gunther, J; Stellfeld, T; Janzer, A; Christian, S; Muller, T; Sheikh, SE; Sykes, DB; Ferrara, SJ; Krober, M; Merz, C; Niehues, M; Schafer, M; Zimmermann, K; Nising, CF; Gradl, SN; Nguyen, D; Eis, K; Gunther, J; Stellfeld, T; Janzer, A; Christian, S; Muller, T; Sheikh, SE; Zhou, HJ; Zhao, C; Sykes, DB; Ferrara, SJ; Liu, K; Krober, M; Merz, C; Niehues, M; Schafer, M; Zimmermann, K; Nising, CF

> <Link to Ligand in BindingDB>
http://www.bindingdb.org/bind/chemsearch/marvin/MolStructure.jsp?monomerid=470418

> <Link to Ligand-Target Pair in BindingDB>
http://www.bindingdb.org/jsp/dbsearch/PrimarySearch_ki.jsp?energyterm=kJ/mole&tag=r21&monomerid=470418&enzyme=Dihydroorotate+dehydrogenase&column=ki&startPg=0&Increment=50&submit=Search

> <PubChem CID>
134469919

> <PubChem SID>
441609595

$$$$

  Mrv2115 07222212352D          

 17 19  0  0  0  0            999 V2000
    4.0668    2.3479    0.0000 C   0  0  0  0  0  0  0  0  0  0  0  0
    3.3523    1.9354    0.0000 C   0  0  0  0  0  0  0  0  0  0  0  0
    3.3523    1.1104    0.0000 C   0  0  0  0  0  0  0  0  0  0  0  0
    2.6378    0.6979    0.0000 C   0  0  0  0  0  0  0  0  0  0  0  0
    2.6378   -0.1271    0.0000 N   0  0  0  0  0  0  0  0  0  0  0  0
    1.9233   -0.5396    0.0000 C   0  0  0  0  0  0  0  0  0  0  0  0
    1.9233   -1.3646    0.0000 C   0  0  0  0  0  0  0  0  0  0  0  0
    1.2089   -1.7771    0.0000 C   0  0  0  0  0  0  0  0  0  0  0  0
    0.4944   -1.3646    0.0000 C   0  0  0  0  0  0  0  0  0  0  0  0
    0.4944   -0.5396    0.0000 C   0  0  0  0  0  0  0  0  0  0  0  0
    1.2089   -0.1271    0.0000 C   0  0  0  0  0  0  0  0  0  0  0  0
    1.9233    1.1104    0.0000 N   0  0  0  0  0  0  0  0  0  0  0  0
    1.1387    0.8555    0.0000 N   0  0  0  0  0  0  0  0  0  0  0  0
    0.6538    1.5229    0.0000 C   0  0  0  0  0  0  0  0  0  0  0  0
    1.1387    2.1904    0.0000 N   0  0  0  0  0  0  0  0  0  0  0  0
    1.9233    1.9354    0.0000 C   0  0  0  0  0  0  0  0  0  0  0  0
    2.6378    2.3479    0.0000 N   0  0  0  0  0  0  0  0  0  0  0  0
  1  2  1  0  0  0  0
  2  3  4  0  0  0  0
  3  4  4  0  0  0  0
  4  5  1  0  0  0  0
  5  6  1  0  0  0  0
  6  7  4  0  0  0  0
  7  8  4  0  0  0  0
  8  9  4  0  0  0  0
  9 10  4  0  0  0  0
 10 11  4  0  0  0  0
  6 11  4  0  0  0  0
  4 12  4  0  0  0  0
 12 13  4  0  0  0  0
 13 14  4  0  0  0  0
 14 15  4  0  0  0  0
 15 16  4  0  0  0  0
 12 16  4  0  0  0  0
 16 17  4  0  0  0  0
  2 17  4  0  0  0  0
M  END
> <IC50(uM)>
200.0

> <Outcome>
0.0

> <BindingDB ID>
52444

> <BindingDB MonomerID>
24412

> <BindingDB Ligand Name>
5-methyl-N-phenyl-[1,2,4]triazolo[1,5-a]pyrimidin-7-amine::JMC521864 Compund DSM12::Triazolopyrimidine-Based Compound, 19

> <Curation/DataSource>
Curated from the literature by BindingDB

> <Article DOI>
10.1021/jm801343r

> <PMID>
19296651

> <Patent Number>
?

> <Authors>
Gujjar, R; Marwaha, A; El Mazouni, F; White, J; White, KL; Creason, S; Shackleford, DM; Baldwin, J; Charman, WN; Buckner, FS; Charman, S; Rathod, PK; Phillips, MA

> <Link to Ligand in BindingDB>
http://www.bindingdb.org/bind/chemsearch/marvin/MolStructure.jsp?monomerid=24412

> <Link to Ligand-Target Pair in BindingDB>
http://www.bindingdb.org/jsp/dbsearch/PrimarySearch_ki.jsp?energyterm=kJ/mole&tag=r21&monomerid=24412&enzyme=Dihydroorotate+Dehydrogenase+%28DHODH%29&column=ki&startPg=0&Increment=50&submit=Search

> <PubChem CID>
523003

> <PubChem SID>
53786408

$$$$

  Mrv2115 07222212352D          

 23 24  0  0  0  0            999 V2000
    3.4656    1.1759    0.0000 C   0  0  0  0  0  0  0  0  0  0  0  0
    2.7512    0.7634    0.0000 C   0  0  0  0  0  0  0  0  0  0  0  0
    2.7512   -0.0616    0.0000 O   0  0  0  0  0  0  0  0  0  0  0  0
    2.0367   -0.4741    0.0000 C   0  0  0  0  0  0  0  0  0  0  0  0
    1.3222   -0.0616    0.0000 O   0  0  0  0  0  0  0  0  0  0  0  0
    2.0367   -1.2991    0.0000 C   0  0  0  0  0  0  0  0  0  0  0  0
    2.7041   -1.7840    0.0000 N   0  0  0  0  0  0  0  0  0  0  0  0
    2.4492   -2.5687    0.0000 C   0  0  0  0  0  0  0  0  0  0  0  0
    2.9341   -3.2361    0.0000 C   0  0  0  0  0  0  0  0  0  0  0  0
    1.6242   -2.5687    0.0000 C   0  0  0  0  0  0  0  0  0  0  0  0
    1.1393   -3.2361    0.0000 C   0  0  0  0  0  0  0  0  0  0  0  0
    0.3188   -3.1499    0.0000 C   0  0  0  0  0  0  0  0  0  0  0  0
   -0.1661   -3.8173    0.0000 C   0  0  0  0  0  0  0  0  0  0  0  0
   -0.9866   -3.7311    0.0000 C   0  0  0  0  0  0  0  0  0  0  0  0
   -1.3222   -2.9774    0.0000 C   0  0  0  0  0  0  0  0  0  0  0  0
   -2.1426   -2.8911    0.0000 C   0  0  0  0  0  0  0  0  0  0  0  0
   -2.9631   -2.8049    0.0000 F   0  0  0  0  0  0  0  0  0  0  0  0
   -2.0564   -2.0707    0.0000 F   0  0  0  0  0  0  0  0  0  0  0  0
   -2.2289   -3.7116    0.0000 F   0  0  0  0  0  0  0  0  0  0  0  0
   -0.8372   -2.3099    0.0000 N   0  0  0  0  0  0  0  0  0  0  0  0
   -0.0168   -2.3962    0.0000 C   0  0  0  0  0  0  0  0  0  0  0  0
    1.3693   -1.7840    0.0000 C   0  0  0  0  0  0  0  0  0  0  0  0
    0.5846   -1.5291    0.0000 C   0  0  0  0  0  0  0  0  0  0  0  0
  1  2  1  0  0  0  0
  2  3  1  0  0  0  0
  3  4  1  0  0  0  0
  4  5  2  0  0  0  0
  4  6  1  0  0  0  0
  6  7  4  0  0  0  0
  7  8  4  0  0  0  0
  8  9  1  0  0  0  0
  8 10  4  0  0  0  0
 10 11  1  0  0  0  0
 11 12  1  0  0  0  0
 12 13  4  0  0  0  0
 13 14  4  0  0  0  0
 14 15  4  0  0  0  0
 15 16  1  0  0  0  0
 16 17  1  0  0  0  0
 16 18  1  0  0  0  0
 16 19  1  0  0  0  0
 15 20  4  0  0  0  0
 20 21  4  0  0  0  0
 12 21  4  0  0  0  0
 10 22  4  0  0  0  0
  6 22  4  0  0  0  0
 22 23  1  0  0  0  0
M  STY  1   1 DAT
M  SAL   1  1   7
M  SDT   1 MRV_IMPLICIT_H                                        
M  SDD   1     0.5304   -0.4125    DR    ALL  0       0  
M  SED   1 IMPL_H1
M  END
> <IC50(uM)>
100.0

> <Outcome>
0.0

> <BindingDB ID>
51330083

> <BindingDB MonomerID>
50538331

> <BindingDB Ligand Name>
CHEMBL4636879

> <Curation/DataSource>
ChEMBL

> <Article DOI>
10.1021/acs.jmedchem.0c00311

> <PMID>
32248693

> <Patent Number>
?

> <Authors>
Kokkonda, S; Deng, X; White, KL; El Mazouni, F; White, J; Shackleford, DM; Katneni, K; Chiu, FCK; Barker, H; McLaren, J; Crighton, E; Chen, G; Angulo-Barturen, I; Jimenez-Diaz, MB; Ferrer, S; Huertas-Valentin, L; Martinez-Martinez, MS; Lafuente-Monasterio, MJ; Chittimalla, R; Shahi, SP; Wittlin, S; Waterson, D; Burrows, JN; Matthews, D; Tomchick, D; Rathod, PK; Palmer, MJ; Charman, SA; Phillips, MA

> <Link to Ligand in BindingDB>
http://www.bindingdb.org/bind/chemsearch/marvin/MolStructure.jsp?monomerid=50538331

> <Link to Ligand-Target Pair in BindingDB>
http://www.bindingdb.org/jsp/dbsearch/PrimarySearch_ki.jsp?energyterm=kJ/mole&tag=r21&monomerid=50538331&enzyme=Dihydroorotate+dehydrogenase&column=ki&startPg=0&Increment=50&submit=Search

> <PubChem CID>
156011562

> <PubChem SID>
442139894

$$$$

  Mrv2115 07222212352D          

 20 21  0  0  0  0            999 V2000
   -0.1067   -0.0616    0.0000 C   0  0  0  0  0  0  0  0  0  0  0  0
    0.6078   -0.4741    0.0000 C   0  0  0  0  0  0  0  0  0  0  0  0
    1.3222   -0.0616    0.0000 O   0  0  0  0  0  0  0  0  0  0  0  0
    2.0367   -0.4741    0.0000 C   0  0  0  0  0  0  0  0  0  0  0  0
    2.7512   -0.0616    0.0000 O   0  0  0  0  0  0  0  0  0  0  0  0
    2.0367   -1.2991    0.0000 C   0  0  0  0  0  0  0  0  0  0  0  0
    1.3693   -1.7840    0.0000 C   0  0  0  0  0  0  0  0  0  0  0  0
    0.5846   -1.5291    0.0000 O   0  0  0  0  0  0  0  0  0  0  0  0
    1.6242   -2.5687    0.0000 C   0  0  0  0  0  0  0  0  0  0  0  0
    2.4492   -2.5687    0.0000 S   0  0  0  0  0  0  0  0  0  0  0  0
    2.7041   -1.7840    0.0000 C   0  0  0  0  0  0  0  0  0  0  0  0
    3.4888   -1.5291    0.0000 N   0  0  0  0  0  0  0  0  0  0  0  0
    4.1019   -2.0811    0.0000 C   0  0  0  0  0  0  0  0  0  0  0  0
    4.8865   -1.8262    0.0000 C   0  0  0  0  0  0  0  0  0  0  0  0
    5.4996   -2.3782    0.0000 C   0  0  0  0  0  0  0  0  0  0  0  0
    6.2842   -2.1233    0.0000 Cl  0  0  0  0  0  0  0  0  0  0  0  0
    5.3281   -3.1852    0.0000 C   0  0  0  0  0  0  0  0  0  0  0  0
    4.5434   -3.4401    0.0000 C   0  0  0  0  0  0  0  0  0  0  0  0
    4.3719   -4.2471    0.0000 Cl  0  0  0  0  0  0  0  0  0  0  0  0
    3.9303   -2.8881    0.0000 C   0  0  0  0  0  0  0  0  0  0  0  0
  1  2  1  0  0  0  0
  2  3  1  0  0  0  0
  3  4  1  0  0  0  0
  4  5  2  0  0  0  0
  4  6  1  0  0  0  0
  6  7  4  0  0  0  0
  7  8  1  0  0  0  0
  7  9  4  0  0  0  0
  9 10  4  0  0  0  0
 10 11  4  0  0  0  0
  6 11  4  0  0  0  0
 11 12  1  0  0  0  0
 12 13  1  0  0  0  0
 13 14  4  0  0  0  0
 14 15  4  0  0  0  0
 15 16  1  0  0  0  0
 15 17  4  0  0  0  0
 17 18  4  0  0  0  0
 18 19  1  0  0  0  0
 18 20  4  0  0  0  0
 13 20  4  0  0  0  0
M  END
> <IC50(uM)>
50.0

> <Outcome>
0.0

> <BindingDB ID>
51079176

> <BindingDB MonomerID>
50441284

> <BindingDB Ligand Name>
CHEMBL2431509

> <Curation/DataSource>
ChEMBL

> <Article DOI>
10.1021/jm400938g

> <PMID>
24073986

> <Patent Number>
?

> <Authors>
Xu, M; Zhu, J; Diao, Y; Zhou, H; Ren, X; Sun, D; Huang, J; Han, D; Zhao, Z; Zhu, L; Xu, Y; Li, H

> <Link to Ligand in BindingDB>
http://www.bindingdb.org/bind/chemsearch/marvin/MolStructure.jsp?monomerid=50441284

> <Link to Ligand-Target Pair in BindingDB>
http://www.bindingdb.org/jsp/dbsearch/PrimarySearch_ki.jsp?energyterm=kJ/mole&tag=r21&monomerid=50441284&enzyme=Dihydroorotate+dehydrogenase&column=ki&startPg=0&Increment=50&submit=Search

> <PubChem CID>
91898845

> <PubChem SID>
175453601

$$$$

  Mrv2115 07222212352D          

 19 20  0  0  0  0            999 V2000
    1.4289   -1.6500    0.0000 C   0  0  0  0  0  0  0  0  0  0  0  0
    1.4289   -2.4750    0.0000 C   0  0  0  0  0  0  0  0  0  0  0  0
    2.1434   -2.8875    0.0000 C   0  0  0  0  0  0  0  0  0  0  0  0
    2.1434   -3.7125    0.0000 C   0  0  0  0  0  0  0  0  0  0  0  0
    1.4289   -4.1250    0.0000 C   0  0  0  0  0  0  0  0  0  0  0  0
    0.7145   -3.7125    0.0000 C   0  0  0  0  0  0  0  0  0  0  0  0
    0.7145   -2.8875    0.0000 C   0  0  0  0  0  0  0  0  0  0  0  0
    0.0000   -2.4750    0.0000 C   0  0  0  0  0  0  0  0  0  0  0  0
    0.0000   -1.6500    0.0000 O   0  0  0  0  0  0  0  0  0  0  0  0
   -0.7145   -2.8875    0.0000 N   0  0  0  0  0  0  0  0  0  0  0  0
   -1.4289   -2.4750    0.0000 C   0  0  0  0  0  0  0  0  0  0  0  0
   -2.1434   -2.8875    0.0000 C   0  0  0  0  0  0  0  0  0  0  0  0
   -2.8579   -2.4750    0.0000 C   0  0  0  0  0  0  0  0  0  0  0  0
   -3.5724   -2.8875    0.0000 Cl  0  0  0  0  0  0  0  0  0  0  0  0
   -2.8579   -1.6500    0.0000 C   0  0  0  0  0  0  0  0  0  0  0  0
   -3.5724   -1.2375    0.0000 O   0  0  0  0  0  0  0  0  0  0  0  0
   -2.1434   -1.2375    0.0000 C   0  0  0  0  0  0  0  0  0  0  0  0
   -2.1434   -0.4125    0.0000 Cl  0  0  0  0  0  0  0  0  0  0  0  0
   -1.4289   -1.6500    0.0000 C   0  0  0  0  0  0  0  0  0  0  0  0
  1  2  1  0  0  0  0
  2  3  4  0  0  0  0
  3  4  4  0  0  0  0
  4  5  4  0  0  0  0
  5  6  4  0  0  0  0
  6  7  4  0  0  0  0
  2  7  4  0  0  0  0
  7  8  1  0  0  0  0
  8  9  2  0  0  0  0
  8 10  1  0  0  0  0
 10 11  1  0  0  0  0
 11 12  4  0  0  0  0
 12 13  4  0  0  0  0
 13 14  1  0  0  0  0
 13 15  4  0  0  0  0
 15 16  1  0  0  0  0
 15 17  4  0  0  0  0
 17 18  1  0  0  0  0
 17 19  4  0  0  0  0
 11 19  4  0  0  0  0
M  END
> <IC50(uM)>
16.08

> <Outcome>
0.0

> <BindingDB ID>
50971927

> <BindingDB MonomerID>
50398635

> <BindingDB Ligand Name>
CHEMBL2177493

> <Curation/DataSource>
ChEMBL

> <Article DOI>
10.1021/jm300630p

> <PMID>
22984987

> <Patent Number>
?

> <Authors>
Diao, Y; Lu, W; Jin, H; Zhu, J; Han, L; Xu, M; Gao, R; Shen, X; Zhao, Z; Liu, X; Xu, Y; Huang, J; Li, H

> <Link to Ligand in BindingDB>
http://www.bindingdb.org/bind/chemsearch/marvin/MolStructure.jsp?monomerid=50398635

> <Link to Ligand-Target Pair in BindingDB>
http://www.bindingdb.org/jsp/dbsearch/PrimarySearch_ki.jsp?energyterm=kJ/mole&tag=r21&monomerid=50398635&enzyme=Dihydroorotate+dehydrogenase&column=ki&startPg=0&Increment=50&submit=Search

> <PubChem CID>
2995335

> <PubChem SID>
163347659

$$$$

  Mrv2115 07222212352D          

 30 32  0  0  0  0            999 V2000
    0.7145   -3.7125    0.0000 O   0  0  0  0  0  0  0  0  0  0  0  0
    1.4289   -4.1250    0.0000 C   0  0  0  0  0  0  0  0  0  0  0  0
    2.1434   -3.7125    0.0000 O   0  0  0  0  0  0  0  0  0  0  0  0
    1.4289   -4.9500    0.0000 C   0  0  0  0  0  0  0  0  0  0  0  0
    2.0964   -5.4349    0.0000 C   0  0  0  0  0  0  0  0  0  0  0  0
    2.8810   -5.1800    0.0000 C   0  0  0  0  0  0  0  0  0  0  0  0
    3.4941   -5.7320    0.0000 O   0  0  0  0  0  0  0  0  0  0  0  0
    3.0525   -4.3730    0.0000 N   0  0  0  0  0  0  0  0  0  0  0  0
    3.8372   -4.1181    0.0000 C   0  0  0  0  0  0  0  0  0  0  0  0
    4.0087   -3.3111    0.0000 C   0  0  0  0  0  0  0  0  0  0  0  0
    3.3956   -2.7591    0.0000 F   0  0  0  0  0  0  0  0  0  0  0  0
    4.7933   -3.0562    0.0000 C   0  0  0  0  0  0  0  0  0  0  0  0
    5.4064   -3.6082    0.0000 C   0  0  0  0  0  0  0  0  0  0  0  0
    6.1910   -3.3533    0.0000 C   0  0  0  0  0  0  0  0  0  0  0  0
    6.3625   -2.5463    0.0000 C   0  0  0  0  0  0  0  0  0  0  0  0
    7.1472   -2.2913    0.0000 C   0  0  0  0  0  0  0  0  0  0  0  0
    7.7603   -2.8434    0.0000 C   0  0  0  0  0  0  0  0  0  0  0  0
    7.5887   -3.6503    0.0000 C   0  0  0  0  0  0  0  0  0  0  0  0
    8.2018   -4.2024    0.0000 O   0  0  0  0  0  0  0  0  0  0  0  0
    8.9864   -3.9474    0.0000 C   0  0  0  0  0  0  0  0  0  0  0  0
    9.7711   -3.6925    0.0000 F   0  0  0  0  0  0  0  0  0  0  0  0
    9.2414   -4.7321    0.0000 F   0  0  0  0  0  0  0  0  0  0  0  0
    8.7315   -3.1628    0.0000 F   0  0  0  0  0  0  0  0  0  0  0  0
    6.8041   -3.9053    0.0000 C   0  0  0  0  0  0  0  0  0  0  0  0
    5.2349   -4.4152    0.0000 C   0  0  0  0  0  0  0  0  0  0  0  0
    4.4502   -4.6701    0.0000 C   0  0  0  0  0  0  0  0  0  0  0  0
    4.2787   -5.4771    0.0000 F   0  0  0  0  0  0  0  0  0  0  0  0
    1.8414   -6.2195    0.0000 C   0  0  0  0  0  0  0  0  0  0  0  0
    1.0164   -6.2195    0.0000 S   0  0  0  0  0  0  0  0  0  0  0  0
    0.7615   -5.4349    0.0000 C   0  0  0  0  0  0  0  0  0  0  0  0
  1  2  2  0  0  0  0
  2  3  1  0  0  0  0
  2  4  1  0  0  0  0
  4  5  2  0  0  0  0
  5  6  1  0  0  0  0
  6  7  2  0  0  0  0
  6  8  1  0  0  0  0
  8  9  1  0  0  0  0
  9 10  4  0  0  0  0
 10 11  1  0  0  0  0
 10 12  4  0  0  0  0
 12 13  4  0  0  0  0
 13 14  1  0  0  0  0
 14 15  4  0  0  0  0
 15 16  4  0  0  0  0
 16 17  4  0  0  0  0
 17 18  4  0  0  0  0
 18 19  1  0  0  0  0
 19 20  1  0  0  0  0
 20 21  1  0  0  0  0
 20 22  1  0  0  0  0
 20 23  1  0  0  0  0
 18 24  4  0  0  0  0
 14 24  4  0  0  0  0
 13 25  4  0  0  0  0
 25 26  4  0  0  0  0
  9 26  4  0  0  0  0
 26 27  1  0  0  0  0
  5 28  1  0  0  0  0
 28 29  1  0  0  0  0
 29 30  1  0  0  0  0
  4 30  1  0  0  0  0
M  END
> <IC50(uM)>
0.015

> <Outcome>
1.0

> <BindingDB ID>
50319884

> <BindingDB MonomerID>
50173151

> <BindingDB Ligand Name>
4-(3,5-Difluoro-3'-trifluoromethoxy-biphenyl-4-ylcarbamoyl)-2,5-dihydro-thiophene-3-carboxylic acid::CHEMBL194075

> <Curation/DataSource>
ChEMBL

> <Article DOI>
10.1016/j.bmcl.2005.07.053

> <PMID>
16143532

> <Patent Number>
?

> <Authors>
Leban, J; Kralik, M; Mies, J; Gassen, M; Tentschert, K; Baumgartner, R

> <Link to Ligand in BindingDB>
http://www.bindingdb.org/bind/chemsearch/marvin/MolStructure.jsp?monomerid=50173151

> <Link to Ligand-Target Pair in BindingDB>
http://www.bindingdb.org/jsp/dbsearch/PrimarySearch_ki.jsp?energyterm=kJ/mole&tag=r21&monomerid=50173151&enzyme=Dihydroorotate+dehydrogenase&column=ki&startPg=0&Increment=50&submit=Search

> <PubChem CID>
44403243

> <PubChem SID>
104059122

$$$$

  Mrv2115 07222212352D          

 21 24  0  0  0  0            999 V2000
    3.1468   -4.3257    0.0000 O   0  0  0  0  0  0  0  0  0  0  0  0
    2.3264   -4.4120    0.0000 C   0  0  0  0  0  0  0  0  0  0  0  0
    1.9908   -5.1657    0.0000 N   0  0  0  0  0  0  0  0  0  0  0  0
    2.4757   -5.8331    0.0000 C   0  0  0  0  0  0  0  0  0  0  0  0
    3.2294   -6.1687    0.0000 C   0  0  0  0  0  0  0  0  0  0  0  0
    2.5620   -6.6536    0.0000 C   0  0  0  0  0  0  0  0  0  0  0  0
    1.8414   -3.7445    0.0000 C   0  0  0  0  0  0  0  0  0  0  0  0
    1.0164   -3.7445    0.0000 C   0  0  0  0  0  0  0  0  0  0  0  0
    0.7615   -2.9599    0.0000 C   0  0  0  0  0  0  0  0  0  0  0  0
    1.4289   -2.4750    0.0000 C   0  0  0  0  0  0  0  0  0  0  0  0
    1.4289   -1.6500    0.0000 N   0  0  0  0  0  0  0  0  0  0  0  0
    0.7145   -1.2375    0.0000 C   0  0  0  0  0  0  0  0  0  0  0  0
    0.7145   -0.4125    0.0000 C   0  0  0  0  0  0  0  0  0  0  0  0
    1.4289    0.0000    0.0000 S   0  0  0  0  0  0  0  0  0  0  0  0
    2.1434   -0.4125    0.0000 C   0  0  0  0  0  0  0  0  0  0  0  0
    2.8579    0.0000    0.0000 C   0  0  0  0  0  0  0  0  0  0  0  0
    3.5724   -0.4125    0.0000 C   0  0  0  0  0  0  0  0  0  0  0  0
    3.5724   -1.2375    0.0000 C   0  0  0  0  0  0  0  0  0  0  0  0
    2.8579   -1.6500    0.0000 C   0  0  0  0  0  0  0  0  0  0  0  0
    2.1434   -1.2375    0.0000 C   0  0  0  0  0  0  0  0  0  0  0  0
    2.0964   -2.9599    0.0000 S   0  0  0  0  0  0  0  0  0  0  0  0
  1  2  2  0  0  0  0
  2  3  1  0  0  0  0
  3  4  1  0  0  0  0
  4  5  1  0  0  0  0
  5  6  1  0  0  0  0
  4  6  1  0  0  0  0
  2  7  1  0  0  0  0
  7  8  4  0  0  0  0
  8  9  4  0  0  0  0
  9 10  4  0  0  0  0
 10 11  1  0  0  0  0
 11 12  1  0  0  0  0
 12 13  1  0  0  0  0
 13 14  1  0  0  0  0
 14 15  1  0  0  0  0
 15 16  4  0  0  0  0
 16 17  4  0  0  0  0
 17 18  4  0  0  0  0
 18 19  4  0  0  0  0
 19 20  4  0  0  0  0
 15 20  4  0  0  0  0
 11 20  1  0  0  0  0
 10 21  4  0  0  0  0
  7 21  4  0  0  0  0
M  END
> <IC50(uM)>
7.9

> <Outcome>
0.0

> <BindingDB ID>
248280; 200943

> <BindingDB MonomerID>
92605

> <BindingDB Ligand Name>
DHOD Inhibitor, 4::US8703811, 5

> <Curation/DataSource>
US Patent; Curated from the literature by BindingDB

> <Article DOI>
?; 10.1074/jbc.M804990200

> <PMID>
?; 18842591

> <Patent Number>
US8703811; ?

> <Authors>
Bastos, C; Booker, ML; Celatka, CA; Clardy, JC; Cortese, J; Patel, VP; Skerlj, R; Wiegand, RC; Wirth, DF; Patel, V; Booker, M; Kramer, M; Ross, L; Celatka, CA; Kennedy, LM; Dvorin, JD; Duraisingh, MT; Sliz, P; Wirth, DF; Clardy, J

> <Link to Ligand in BindingDB>
http://www.bindingdb.org/bind/chemsearch/marvin/MolStructure.jsp?monomerid=92605

> <Link to Ligand-Target Pair in BindingDB>
http://www.bindingdb.org/jsp/dbsearch/PrimarySearch_ki.jsp?energyterm=kJ/mole&tag=r21&monomerid=92605&enzyme=Dihydroorotate+dehydrogenase&column=ki&startPg=0&Increment=50&submit=Search

> <PubChem CID>
44481107

> <PubChem SID>
160845102

$$$$

  Mrv2115 07222212352D          

 24 26  0  0  0  0            999 V2000
    1.4289   -0.0000    0.0000 C   0  0  0  0  0  0  0  0  0  0  0  0
    0.7145   -0.4125    0.0000 N   0  0  0  0  0  0  0  0  0  0  0  0
    0.0000    0.0000    0.0000 N   0  0  0  0  0  0  0  0  0  0  0  0
   -0.7145   -0.4125    0.0000 C   0  0  0  0  0  0  0  0  0  0  0  0
   -1.4289    0.0000    0.0000 C   0  0  0  0  0  0  0  0  0  0  0  0
   -2.1434   -0.4125    0.0000 C   0  0  0  0  0  0  0  0  0  0  0  0
   -2.8579    0.0000    0.0000 C   0  0  0  0  0  0  0  0  0  0  0  0
   -2.8579    0.8250    0.0000 C   0  0  0  0  0  0  0  0  0  0  0  0
   -2.1434    1.2375    0.0000 C   0  0  0  0  0  0  0  0  0  0  0  0
   -1.4289    0.8250    0.0000 C   0  0  0  0  0  0  0  0  0  0  0  0
   -0.7145    1.2375    0.0000 C   0  0  0  0  0  0  0  0  0  0  0  0
    0.0000    0.8250    0.0000 O   0  0  0  0  0  0  0  0  0  0  0  0
   -0.7145    2.0625    0.0000 O   0  0  0  0  0  0  0  0  0  0  0  0
    0.7145   -1.2375    0.0000 C   0  0  0  0  0  0  0  0  0  0  0  0
    1.3819   -1.7224    0.0000 N   0  0  0  0  0  0  0  0  0  0  0  0
    1.1270   -2.5070    0.0000 C   0  0  0  0  0  0  0  0  0  0  0  0
    1.6119   -3.1745    0.0000 C   0  0  0  0  0  0  0  0  0  0  0  0
    2.4324   -3.0882    0.0000 C   0  0  0  0  0  0  0  0  0  0  0  0
    2.9173   -3.7557    0.0000 C   0  0  0  0  0  0  0  0  0  0  0  0
    2.5817   -4.5094    0.0000 C   0  0  0  0  0  0  0  0  0  0  0  0
    1.7613   -4.5956    0.0000 C   0  0  0  0  0  0  0  0  0  0  0  0
    1.2763   -3.9282    0.0000 C   0  0  0  0  0  0  0  0  0  0  0  0
    0.3020   -2.5070    0.0000 C   0  0  0  0  0  0  0  0  0  0  0  0
    0.0470   -1.7224    0.0000 S   0  0  0  0  0  0  0  0  0  0  0  0
  1  2  1  0  0  0  0
  2  3  1  0  0  0  0
  3  4  2  0  0  0  0
  4  5  1  0  0  0  0
  5  6  4  0  0  0  0
  6  7  4  0  0  0  0
  7  8  4  0  0  0  0
  8  9  4  0  0  0  0
  9 10  4  0  0  0  0
  5 10  4  0  0  0  0
 10 11  1  0  0  0  0
 11 12  2  0  0  0  0
 11 13  1  0  0  0  0
  2 14  1  0  0  0  0
 14 15  4  0  0  0  0
 15 16  4  0  0  0  0
 16 17  1  0  0  0  0
 17 18  4  0  0  0  0
 18 19  4  0  0  0  0
 19 20  4  0  0  0  0
 20 21  4  0  0  0  0
 21 22  4  0  0  0  0
 17 22  4  0  0  0  0
 16 23  4  0  0  0  0
 23 24  4  0  0  0  0
 14 24  4  0  0  0  0
M  END
> <IC50(uM)>
0.024399999999999998

> <Outcome>
1.0

> <BindingDB ID>
1001127

> <BindingDB MonomerID>
482813

> <BindingDB Ligand Name>
US10919869, No.  20

> <Curation/DataSource>
US Patent

> <Article DOI>
?

> <PMID>
?

> <Patent Number>
US10919869

> <Authors>
Li, H; Xu, Y; Wang, R; Zhao, Z; Song, W; Xu, L

> <Link to Ligand in BindingDB>
http://www.bindingdb.org/bind/chemsearch/marvin/MolStructure.jsp?monomerid=482813

> <Link to Ligand-Target Pair in BindingDB>
http://www.bindingdb.org/jsp/dbsearch/PrimarySearch_ki.jsp?energyterm=kJ/mole&tag=r21&monomerid=482813&enzyme=Dihydroorotate+dehydrogenase&column=ki&startPg=0&Increment=50&submit=Search

> <PubChem CID>
132157974

> <PubChem SID>
443551954

$$$$

  Mrv2115 07222212352D          

 23 25  0  0  0  0            999 V2000
   -1.4087    0.0165    0.0000 C   0  0  0  0  0  0  0  0  0  0  0  0
   -0.9962   -0.6979    0.0000 C   0  0  0  0  0  0  0  0  0  0  0  0
   -0.1712   -0.6979    0.0000 C   0  0  0  0  0  0  0  0  0  0  0  0
   -0.1712   -1.5229    0.0000 F   0  0  0  0  0  0  0  0  0  0  0  0
   -0.1712    0.1271    0.0000 F   0  0  0  0  0  0  0  0  0  0  0  0
    0.6538   -0.6979    0.0000 C   0  0  0  0  0  0  0  0  0  0  0  0
    1.1387   -0.0305    0.0000 N   0  0  0  0  0  0  0  0  0  0  0  0
    1.9233   -0.2854    0.0000 C   0  0  0  0  0  0  0  0  0  0  0  0
    2.6378    0.1271    0.0000 N   0  0  0  0  0  0  0  0  0  0  0  0
    3.3523   -0.2854    0.0000 C   0  0  0  0  0  0  0  0  0  0  0  0
    4.0668    0.1271    0.0000 C   0  0  0  0  0  0  0  0  0  0  0  0
    3.3523   -1.1104    0.0000 C   0  0  0  0  0  0  0  0  0  0  0  0
    2.6378   -1.5229    0.0000 C   0  0  0  0  0  0  0  0  0  0  0  0
    2.6378   -2.3479    0.0000 N   0  0  0  0  0  0  0  0  0  0  0  0
    1.9233   -2.7604    0.0000 C   0  0  0  0  0  0  0  0  0  0  0  0
    1.9233   -3.5854    0.0000 C   0  0  0  0  0  0  0  0  0  0  0  0
    1.2089   -3.9979    0.0000 C   0  0  0  0  0  0  0  0  0  0  0  0
    0.4944   -3.5854    0.0000 C   0  0  0  0  0  0  0  0  0  0  0  0
    0.4944   -2.7604    0.0000 C   0  0  0  0  0  0  0  0  0  0  0  0
   -0.2201   -2.3479    0.0000 Cl  0  0  0  0  0  0  0  0  0  0  0  0
    1.2089   -2.3479    0.0000 C   0  0  0  0  0  0  0  0  0  0  0  0
    1.9233   -1.1104    0.0000 N   0  0  0  0  0  0  0  0  0  0  0  0
    1.1387   -1.3654    0.0000 N   0  0  0  0  0  0  0  0  0  0  0  0
  1  2  1  0  0  0  0
  2  3  1  0  0  0  0
  3  4  1  0  0  0  0
  3  5  1  0  0  0  0
  3  6  1  0  0  0  0
  6  7  4  0  0  0  0
  7  8  4  0  0  0  0
  8  9  4  0  0  0  0
  9 10  4  0  0  0  0
 10 11  1  0  0  0  0
 10 12  4  0  0  0  0
 12 13  4  0  0  0  0
 13 14  1  0  0  0  0
 14 15  1  0  0  0  0
 15 16  4  0  0  0  0
 16 17  4  0  0  0  0
 17 18  4  0  0  0  0
 18 19  4  0  0  0  0
 19 20  1  0  0  0  0
 19 21  4  0  0  0  0
 15 21  4  0  0  0  0
 13 22  4  0  0  0  0
  8 22  4  0  0  0  0
 22 23  4  0  0  0  0
  6 23  4  0  0  0  0
M  END
> <IC50(uM)>
100.0

> <Outcome>
0.0

> <BindingDB ID>
50720158

> <BindingDB MonomerID>
50365228

> <BindingDB Ligand Name>
CHEMBL1956287

> <Curation/DataSource>
ChEMBL

> <Article DOI>
10.1021/jm200592f

> <PMID>
21696174

> <Patent Number>
?

> <Authors>
Coteron, JM; Marco, M; Esquivias, J; Deng, X; White, KL; White, J; Koltun, M; El Mazouni, F; Kokkonda, S; Katneni, K; Bhamidipati, R; Shackleford, DM; Angulo-Barturen, I; Ferrer, SB; Jimenez-Diaz, MB; Gamo, FJ; Goldsmith, EJ; Charman, WN; Bathurst, I; Floyd, D; Matthews, D; Burrows, JN; Rathod, PK; Charman, SA; Phillips, MA

> <Link to Ligand in BindingDB>
http://www.bindingdb.org/bind/chemsearch/marvin/MolStructure.jsp?monomerid=50365228

> <Link to Ligand-Target Pair in BindingDB>
http://www.bindingdb.org/jsp/dbsearch/PrimarySearch_ki.jsp?energyterm=kJ/mole&tag=r21&monomerid=50365228&enzyme=Dihydroorotate+dehydrogenase&column=ki&startPg=0&Increment=50&submit=Search

> <PubChem CID>
53392705

> <PubChem SID>
136969290

$$$$

  Mrv2115 07222212352D          

 23 26  0  0  0  0            999 V2000
    3.0483   -3.0504    0.0000 C   0  0  0  0  0  0  0  0  0  0  0  0
    3.6004   -2.4373    0.0000 C   0  0  0  0  0  0  0  0  0  0  0  0
    3.3454   -1.6527    0.0000 C   0  0  0  0  0  0  0  0  0  0  0  0
    3.8974   -1.0396    0.0000 C   0  0  0  0  0  0  0  0  0  0  0  0
    3.6425   -0.2549    0.0000 N   0  0  0  0  0  0  0  0  0  0  0  0
    4.1274    0.4125    0.0000 N   0  0  0  0  0  0  0  0  0  0  0  0
    3.6425    1.0799    0.0000 N   0  0  0  0  0  0  0  0  0  0  0  0
    2.8579    0.8250    0.0000 C   0  0  0  0  0  0  0  0  0  0  0  0
    2.8579    0.0000    0.0000 C   0  0  0  0  0  0  0  0  0  0  0  0
    2.1434   -0.4125    0.0000 C   0  0  0  0  0  0  0  0  0  0  0  0
    2.1434   -1.2375    0.0000 O   0  0  0  0  0  0  0  0  0  0  0  0
    1.4289   -0.0000    0.0000 C   0  0  0  0  0  0  0  0  0  0  0  0
    0.7145   -0.4125    0.0000 C   0  0  0  0  0  0  0  0  0  0  0  0
   -0.0000    0.0000    0.0000 C   0  0  0  0  0  0  0  0  0  0  0  0
    0.0000    0.8250    0.0000 C   0  0  0  0  0  0  0  0  0  0  0  0
    0.7145    1.2375    0.0000 C   0  0  0  0  0  0  0  0  0  0  0  0
    1.4289    0.8250    0.0000 C   0  0  0  0  0  0  0  0  0  0  0  0
    2.1434    1.2375    0.0000 C   0  0  0  0  0  0  0  0  0  0  0  0
    2.1434    2.0625    0.0000 O   0  0  0  0  0  0  0  0  0  0  0  0
    4.7044   -1.2111    0.0000 C   0  0  0  0  0  0  0  0  0  0  0  0
    4.9594   -1.9957    0.0000 C   0  0  0  0  0  0  0  0  0  0  0  0
    4.4073   -2.6088    0.0000 C   0  0  0  0  0  0  0  0  0  0  0  0
    4.6623   -3.3934    0.0000 F   0  0  0  0  0  0  0  0  0  0  0  0
  1  2  1  0  0  0  0
  2  3  4  0  0  0  0
  3  4  4  0  0  0  0
  4  5  1  0  0  0  0
  5  6  4  0  0  0  0
  6  7  4  0  0  0  0
  7  8  4  0  0  0  0
  8  9  4  0  0  0  0
  5  9  4  0  0  0  0
  9 10  1  0  0  0  0
 10 11  2  0  0  0  0
 10 12  1  0  0  0  0
 12 13  4  0  0  0  0
 13 14  4  0  0  0  0
 14 15  4  0  0  0  0
 15 16  4  0  0  0  0
 16 17  4  0  0  0  0
 12 17  4  0  0  0  0
 17 18  1  0  0  0  0
  8 18  1  0  0  0  0
 18 19  2  0  0  0  0
  4 20  4  0  0  0  0
 20 21  4  0  0  0  0
 21 22  4  0  0  0  0
  2 22  4  0  0  0  0
 22 23  1  0  0  0  0
M  END
> <IC50(uM)>
1.0

> <Outcome>
1.0

> <BindingDB ID>
51338169

> <BindingDB MonomerID>
50541643

> <BindingDB Ligand Name>
CHEMBL4646058

> <Curation/DataSource>
ChEMBL

> <Article DOI>
10.1021/acs.jmedchem.0c00512

> <PMID>
32496056

> <Patent Number>
?

> <Authors>
Zuo, Z; Liu, X; Qian, X; Zeng, T; Sang, N; Liu, H; Zhou, Y; Tao, L; Zhou, X; Su, N; Yu, Y; Chen, Q; Luo, Y; Zhao, Y

> <Link to Ligand in BindingDB>
http://www.bindingdb.org/bind/chemsearch/marvin/MolStructure.jsp?monomerid=50541643

> <Link to Ligand-Target Pair in BindingDB>
http://www.bindingdb.org/jsp/dbsearch/PrimarySearch_ki.jsp?energyterm=kJ/mole&tag=r21&monomerid=50541643&enzyme=Dihydroorotate+dehydrogenase&column=ki&startPg=0&Increment=50&submit=Search

> <PubChem CID>
156019720

> <PubChem SID>
442143206

$$$$

  Mrv2115 07222212352D          

 22 24  0  0  0  0            999 V2000
    4.0668    2.3479    0.0000 C   0  0  0  0  0  0  0  0  0  0  0  0
    3.3523    1.9354    0.0000 C   0  0  0  0  0  0  0  0  0  0  0  0
    3.3523    1.1104    0.0000 C   0  0  0  0  0  0  0  0  0  0  0  0
    2.6378    0.6979    0.0000 C   0  0  0  0  0  0  0  0  0  0  0  0
    2.6378   -0.1271    0.0000 N   0  0  0  0  0  0  0  0  0  0  0  0
    1.9233   -0.5396    0.0000 C   0  0  0  0  0  0  0  0  0  0  0  0
    1.9233   -1.3646    0.0000 C   0  0  0  0  0  0  0  0  0  0  0  0
    1.2089   -1.7771    0.0000 C   0  0  0  0  0  0  0  0  0  0  0  0
    0.4944   -1.3646    0.0000 C   0  0  0  0  0  0  0  0  0  0  0  0
   -0.2201   -1.7771    0.0000 S   0  0  0  0  0  0  0  0  0  0  0  0
   -0.2201   -2.6021    0.0000 C   0  0  0  0  0  0  0  0  0  0  0  0
   -0.2201   -3.4271    0.0000 F   0  0  0  0  0  0  0  0  0  0  0  0
   -1.0451   -2.6021    0.0000 F   0  0  0  0  0  0  0  0  0  0  0  0
    0.6049   -2.6021    0.0000 F   0  0  0  0  0  0  0  0  0  0  0  0
    0.4944   -0.5396    0.0000 C   0  0  0  0  0  0  0  0  0  0  0  0
    1.2089   -0.1271    0.0000 C   0  0  0  0  0  0  0  0  0  0  0  0
    1.9233    1.1104    0.0000 N   0  0  0  0  0  0  0  0  0  0  0  0
    1.1387    0.8555    0.0000 N   0  0  0  0  0  0  0  0  0  0  0  0
    0.6538    1.5229    0.0000 C   0  0  0  0  0  0  0  0  0  0  0  0
    1.1387    2.1904    0.0000 N   0  0  0  0  0  0  0  0  0  0  0  0
    1.9233    1.9354    0.0000 C   0  0  0  0  0  0  0  0  0  0  0  0
    2.6378    2.3479    0.0000 N   0  0  0  0  0  0  0  0  0  0  0  0
  1  2  1  0  0  0  0
  2  3  4  0  0  0  0
  3  4  4  0  0  0  0
  4  5  1  0  0  0  0
  5  6  1  0  0  0  0
  6  7  4  0  0  0  0
  7  8  4  0  0  0  0
  8  9  4  0  0  0  0
  9 10  1  0  0  0  0
 10 11  1  0  0  0  0
 11 12  1  0  0  0  0
 11 13  1  0  0  0  0
 11 14  1  0  0  0  0
  9 15  4  0  0  0  0
 15 16  4  0  0  0  0
  6 16  4  0  0  0  0
  4 17  4  0  0  0  0
 17 18  4  0  0  0  0
 18 19  4  0  0  0  0
 19 20  4  0  0  0  0
 20 21  4  0  0  0  0
 17 21  4  0  0  0  0
 21 22  4  0  0  0  0
  2 22  4  0  0  0  0
M  END
> <IC50(uM)>
50.0

> <Outcome>
0.0

> <BindingDB ID>
50643166

> <BindingDB MonomerID>
50345415

> <BindingDB Ligand Name>
5-Methyl-N-(4-(trifuoromethylthio)phenyl)-[1,2,4]triazolo[1,5-a]-pyrimidin-7-amine::CHEMBL1784566::US9238653, Table 5, Compound 25

> <Curation/DataSource>
ChEMBL

> <Article DOI>
10.1021/jm200265b

> <PMID>
21517059

> <Patent Number>
?

> <Authors>
Gujjar, R; El Mazouni, F; White, KL; White, J; Creason, S; Shackleford, DM; Deng, X; Charman, WN; Bathurst, I; Burrows, J; Floyd, DM; Matthews, D; Buckner, FS; Charman, SA; Phillips, MA; Rathod, PK

> <Link to Ligand in BindingDB>
http://www.bindingdb.org/bind/chemsearch/marvin/MolStructure.jsp?monomerid=50345415

> <Link to Ligand-Target Pair in BindingDB>
http://www.bindingdb.org/jsp/dbsearch/PrimarySearch_ki.jsp?energyterm=kJ/mole&tag=r21&monomerid=50345415&enzyme=Dihydroorotate+dehydrogenase&column=ki&startPg=0&Increment=50&submit=Search

> <PubChem CID>
51347246

> <PubChem SID>
131348351

$$$$

  Mrv2115 07222212352D          

 37 41  0  0  0  0            999 V2000
   -1.8659    1.4455    0.0000 C   0  0  0  0  0  0  0  0  0  0  0  0
   -2.6909    1.4455    0.0000 C   0  0  0  0  0  0  0  0  0  0  0  0
   -3.1034    0.7310    0.0000 O   0  0  0  0  0  0  0  0  0  0  0  0
   -2.6909    0.0165    0.0000 C   0  0  0  0  0  0  0  0  0  0  0  0
   -1.8659    0.0165    0.0000 C   0  0  0  0  0  0  0  0  0  0  0  0
   -1.4534   -0.6979    0.0000 C   0  0  0  0  0  0  0  0  0  0  0  0
   -0.6284   -0.6979    0.0000 N   0  0  0  0  0  0  0  0  0  0  0  0
   -0.1435   -1.3654    0.0000 N   0  0  0  0  0  0  0  0  0  0  0  0
    0.6411   -1.1104    0.0000 C   0  0  0  0  0  0  0  0  0  0  0  0
    0.6411   -0.2854    0.0000 N   0  0  0  0  0  0  0  0  0  0  0  0
   -0.1435   -0.0305    0.0000 C   0  0  0  0  0  0  0  0  0  0  0  0
   -0.3984    0.7541    0.0000 O   0  0  0  0  0  0  0  0  0  0  0  0
    1.3556    0.1271    0.0000 C   0  0  0  0  0  0  0  0  0  0  0  0
    2.0701   -0.2854    0.0000 C   0  0  0  0  0  0  0  0  0  0  0  0
    2.0701   -1.1104    0.0000 C   0  0  0  0  0  0  0  0  0  0  0  0
    1.3556   -1.5229    0.0000 C   0  0  0  0  0  0  0  0  0  0  0  0
   -1.8659   -1.4124    0.0000 C   0  0  0  0  0  0  0  0  0  0  0  0
   -1.4534   -2.1269    0.0000 F   0  0  0  0  0  0  0  0  0  0  0  0
   -2.6909   -1.4124    0.0000 C   0  0  0  0  0  0  0  0  0  0  0  0
   -3.1034   -0.6979    0.0000 C   0  0  0  0  0  0  0  0  0  0  0  0
   -3.9284   -0.6979    0.0000 C   0  0  0  0  0  0  0  0  0  0  0  0
   -4.3409    0.0165    0.0000 O   0  0  0  0  0  0  0  0  0  0  0  0
   -4.3409   -1.4124    0.0000 N   0  0  0  0  0  0  0  0  0  0  0  0
   -3.9284   -2.1269    0.0000 C   0  0  0  0  0  0  0  0  0  0  0  0
   -3.1034   -2.1269    0.0000 C   0  0  0  0  0  0  0  0  0  0  0  0
   -2.6909   -2.8414    0.0000 C   0  0  0  0  0  0  0  0  0  0  0  0
   -3.1034   -3.5558    0.0000 C   0  0  0  0  0  0  0  0  0  0  0  0
   -3.9284   -3.5558    0.0000 C   0  0  0  0  0  0  0  0  0  0  0  0
   -4.3409   -4.2703    0.0000 F   0  0  0  0  0  0  0  0  0  0  0  0
   -4.3409   -2.8414    0.0000 C   0  0  0  0  0  0  0  0  0  0  0  0
   -5.1659   -2.8414    0.0000 Cl  0  0  0  0  0  0  0  0  0  0  0  0
   -3.1034    2.1599    0.0000 C   0  0  0  0  0  0  0  0  0  0  0  0
   -3.9284    2.1599    0.0000 C   0  0  0  0  0  0  0  0  0  0  0  0
   -4.3409    2.8744    0.0000 C   0  0  0  0  0  0  0  0  0  0  0  0
   -3.9284    3.5889    0.0000 C   0  0  0  0  0  0  0  0  0  0  0  0
   -3.1034    3.5889    0.0000 C   0  0  0  0  0  0  0  0  0  0  0  0
   -2.6909    2.8744    0.0000 C   0  0  0  0  0  0  0  0  0  0  0  0
  1  2  1  0  0  0  0
  2  3  1  0  0  0  0
  3  4  1  0  0  0  0
  4  5  4  0  0  0  0
  5  6  4  0  0  0  0
  6  7  1  0  0  0  0
  7  8  4  0  0  0  0
  8  9  4  0  0  0  0
  9 10  4  0  0  0  0
 10 11  4  0  0  0  0
  7 11  4  0  0  0  0
 11 12  2  0  0  0  0
 10 13  1  0  0  0  0
 13 14  1  0  0  0  0
 14 15  1  0  0  0  0
 15 16  1  0  0  0  0
  9 16  1  0  0  0  0
  6 17  4  0  0  0  0
 17 18  1  0  0  0  0
 17 19  4  0  0  0  0
 19 20  4  0  0  0  0
  4 20  4  0  0  0  0
 20 21  1  0  0  0  0
 21 22  2  0  0  0  0
 21 23  1  0  0  0  0
 23 24  1  0  0  0  0
 24 25  4  0  0  0  0
 25 26  4  0  0  0  0
 26 27  4  0  0  0  0
 27 28  4  0  0  0  0
 28 29  1  0  0  0  0
 28 30  4  0  0  0  0
 24 30  4  0  0  0  0
 30 31  1  0  0  0  0
  2 32  1  0  0  0  0
 32 33  1  0  0  0  0
 33 34  1  0  0  0  0
 34 35  1  0  0  0  0
 35 36  1  0  0  0  0
 36 37  1  0  0  0  0
 32 37  1  0  0  0  0
M  END
> <IC50(uM)>
0.2

> <Outcome>
1.0

> <BindingDB ID>
1020565

> <BindingDB MonomerID>
490504

> <BindingDB Ligand Name>
N-(2-chloro-3-fluorophenyl)-2-[(1S)-1-cyclohexylethoxy]-5-fluoro-4-(3-oxo-5,6,7,8-tetrahydro-[1,2,4]triazolo[4,3-a]pyridin-2(3H)-yl)benzamide::US10968216, Example 172

> <Curation/DataSource>
US Patent

> <Article DOI>
?

> <PMID>
?

> <Patent Number>
US10968216

> <Authors>
Gradl, SN; Nguyen, D; Eis, K; Gunther, J; Stellfeld, T; Janzer, A; Christian, S; Mueller, T; Sheikh, SE; Zhou, HJ; Zhao, C; Sykes, DB; Ferrara, SJ; Liu, K; Herbert, SA; Merz, C; Niehues, M; Nising, CF; Schafer, M; Zimmermann, K; Knablein, J; Thede, K; Faupel, T

> <Link to Ligand in BindingDB>
http://www.bindingdb.org/bind/chemsearch/marvin/MolStructure.jsp?monomerid=490504

> <Link to Ligand-Target Pair in BindingDB>
http://www.bindingdb.org/jsp/dbsearch/PrimarySearch_ki.jsp?energyterm=kJ/mole&tag=r21&monomerid=490504&enzyme=Dihydroorotate+dehydrogenase&column=ki&startPg=0&Increment=50&submit=Search

> <PubChem CID>
134474421

> <PubChem SID>
447117231

$$$$

  Mrv2115 07222212352D          

 36 40  0  0  0  0            999 V2000
    4.0668    2.3479    0.0000 C   0  0  0  0  0  0  0  0  0  0  0  0
    3.3523    1.9354    0.0000 C   0  0  0  0  0  0  0  0  0  0  0  0
    3.3523    1.1104    0.0000 C   0  0  0  0  0  0  0  0  0  0  0  0
    2.6378    0.6979    0.0000 C   0  0  0  0  0  0  0  0  0  0  0  0
    2.6378   -0.1271    0.0000 C   0  0  0  0  0  0  0  0  0  0  0  0
    1.9233   -0.5396    0.0000 O   0  0  0  0  0  0  0  0  0  0  0  0
    3.3523   -0.5396    0.0000 O   0  0  0  0  0  0  0  0  0  0  0  0
    1.9233    1.1104    0.0000 C   0  0  0  0  0  0  0  0  0  0  0  0
    1.1387    0.8555    0.0000 N   0  0  0  0  0  0  0  0  0  0  0  0
    0.6538    1.5229    0.0000 C   0  0  0  0  0  0  0  0  0  0  0  0
   -0.1712    1.5229    0.0000 C   0  0  0  0  0  0  0  0  0  0  0  0
   -0.5837    0.8085    0.0000 C   0  0  0  0  0  0  0  0  0  0  0  0
   -0.1712    0.0940    0.0000 F   0  0  0  0  0  0  0  0  0  0  0  0
   -1.4087    0.8085    0.0000 C   0  0  0  0  0  0  0  0  0  0  0  0
   -1.8212    0.0940    0.0000 F   0  0  0  0  0  0  0  0  0  0  0  0
   -1.8212    1.5229    0.0000 C   0  0  0  0  0  0  0  0  0  0  0  0
   -2.6462    1.5229    0.0000 C   0  0  0  0  0  0  0  0  0  0  0  0
   -3.0587    0.8085    0.0000 C   0  0  0  0  0  0  0  0  0  0  0  0
   -3.8837    0.8085    0.0000 C   0  0  0  0  0  0  0  0  0  0  0  0
   -4.2962    1.5229    0.0000 C   0  0  0  0  0  0  0  0  0  0  0  0
   -5.1212    1.5229    0.0000 C   0  0  0  0  0  0  0  0  0  0  0  0
   -5.5337    2.2374    0.0000 N   0  0  0  0  0  0  0  0  0  0  0  0
   -6.3587    2.2374    0.0000 C   0  0  0  0  0  0  0  0  0  0  0  0
   -6.7712    2.9519    0.0000 C   0  0  0  0  0  0  0  0  0  0  0  0
   -6.3587    3.6664    0.0000 C   0  0  0  0  0  0  0  0  0  0  0  0
   -5.5337    3.6664    0.0000 C   0  0  0  0  0  0  0  0  0  0  0  0
   -5.1212    2.9519    0.0000 C   0  0  0  0  0  0  0  0  0  0  0  0
   -3.8837    2.2374    0.0000 C   0  0  0  0  0  0  0  0  0  0  0  0
   -3.0587    2.2374    0.0000 C   0  0  0  0  0  0  0  0  0  0  0  0
   -1.4087    2.2374    0.0000 C   0  0  0  0  0  0  0  0  0  0  0  0
   -1.8212    2.9519    0.0000 F   0  0  0  0  0  0  0  0  0  0  0  0
   -0.5837    2.2374    0.0000 C   0  0  0  0  0  0  0  0  0  0  0  0
   -0.1712    2.9519    0.0000 F   0  0  0  0  0  0  0  0  0  0  0  0
    1.1387    2.1904    0.0000 N   0  0  0  0  0  0  0  0  0  0  0  0
    1.9233    1.9354    0.0000 C   0  0  0  0  0  0  0  0  0  0  0  0
    2.6378    2.3479    0.0000 C   0  0  0  0  0  0  0  0  0  0  0  0
  1  2  1  0  0  0  0
  2  3  4  0  0  0  0
  3  4  4  0  0  0  0
  4  5  1  0  0  0  0
  5  6  2  0  0  0  0
  5  7  1  0  0  0  0
  4  8  4  0  0  0  0
  8  9  4  0  0  0  0
  9 10  4  0  0  0  0
 10 11  1  0  0  0  0
 11 12  4  0  0  0  0
 12 13  1  0  0  0  0
 12 14  4  0  0  0  0
 14 15  1  0  0  0  0
 14 16  4  0  0  0  0
 16 17  1  0  0  0  0
 17 18  4  0  0  0  0
 18 19  4  0  0  0  0
 19 20  4  0  0  0  0
 20 21  1  0  0  0  0
 21 22  1  0  0  0  0
 22 23  1  0  0  0  0
 23 24  1  0  0  0  0
 24 25  1  0  0  0  0
 25 26  1  0  0  0  0
 26 27  1  0  0  0  0
 22 27  1  0  0  0  0
 20 28  4  0  0  0  0
 28 29  4  0  0  0  0
 17 29  4  0  0  0  0
 16 30  4  0  0  0  0
 30 31  1  0  0  0  0
 30 32  4  0  0  0  0
 11 32  4  0  0  0  0
 32 33  1  0  0  0  0
 10 34  4  0  0  0  0
 34 35  4  0  0  0  0
  8 35  4  0  0  0  0
 35 36  4  0  0  0  0
  2 36  4  0  0  0  0
M  STY  1   1 DAT
M  SAL   1  1  34
M  SDT   1 MRV_IMPLICIT_H                                        
M  SDD   1     0.5304   -0.4125    DR    ALL  0       0  
M  SED   1 IMPL_H1
M  END
> <IC50(uM)>
0.078

> <Outcome>
1.0

> <BindingDB ID>
297785

> <BindingDB MonomerID>
155441

> <BindingDB Ligand Name>
US9006454, I83

> <Curation/DataSource>
US Patent

> <Article DOI>
?

> <PMID>
?

> <Patent Number>
US9006454

> <Authors>
Thunuguntla, SS; Subramanya, H; Kunnam, SR; Sanivaru Vijay, SR; Bingi, C; Kusanur, R; Schwarz, M; Arlt, M

> <Link to Ligand in BindingDB>
http://www.bindingdb.org/bind/chemsearch/marvin/MolStructure.jsp?monomerid=155441

> <Link to Ligand-Target Pair in BindingDB>
http://www.bindingdb.org/jsp/dbsearch/PrimarySearch_ki.jsp?energyterm=kJ/mole&tag=r21&monomerid=155441&enzyme=Dihydroorotate+dehydrogenase&column=ki&startPg=0&Increment=50&submit=Search

> <PubChem CID>
46947571

> <PubChem SID>
253658378

$$$$

  Mrv2115 07222212352D          

 34 37  0  0  0  0            999 V2000
   -0.1712   -0.6979    0.0000 C   0  0  0  0  0  0  0  0  0  0  0  0
    0.6538   -0.6979    0.0000 C   0  0  0  0  0  0  0  0  0  0  0  0
    1.1387   -0.0305    0.0000 N   0  0  0  0  0  0  0  0  0  0  0  0
    1.9233   -0.2854    0.0000 C   0  0  0  0  0  0  0  0  0  0  0  0
    2.6378    0.1271    0.0000 C   0  0  0  0  0  0  0  0  0  0  0  0
    2.6378    0.9521    0.0000 C   0  0  0  0  0  0  0  0  0  0  0  0
    3.3523    1.3646    0.0000 O   0  0  0  0  0  0  0  0  0  0  0  0
    1.9233    1.3646    0.0000 O   0  0  0  0  0  0  0  0  0  0  0  0
    3.3523   -0.2854    0.0000 C   0  0  0  0  0  0  0  0  0  0  0  0
    3.3523   -1.1104    0.0000 C   0  0  0  0  0  0  0  0  0  0  0  0
    4.0668   -1.5229    0.0000 C   0  0  0  0  0  0  0  0  0  0  0  0
    4.7812   -1.1104    0.0000 C   0  0  0  0  0  0  0  0  0  0  0  0
    4.7812   -0.2854    0.0000 F   0  0  0  0  0  0  0  0  0  0  0  0
    5.4957   -1.5229    0.0000 C   0  0  0  0  0  0  0  0  0  0  0  0
    6.2102   -1.1104    0.0000 F   0  0  0  0  0  0  0  0  0  0  0  0
    5.4957   -2.3479    0.0000 C   0  0  0  0  0  0  0  0  0  0  0  0
    6.2102   -2.7604    0.0000 C   0  0  0  0  0  0  0  0  0  0  0  0
    6.9246   -2.3479    0.0000 C   0  0  0  0  0  0  0  0  0  0  0  0
    7.6391   -2.7604    0.0000 C   0  0  0  0  0  0  0  0  0  0  0  0
    7.6391   -3.5854    0.0000 C   0  0  0  0  0  0  0  0  0  0  0  0
    6.9246   -3.9979    0.0000 C   0  0  0  0  0  0  0  0  0  0  0  0
    6.9246   -4.8229    0.0000 C   0  0  0  0  0  0  0  0  0  0  0  0
    7.6391   -5.2354    0.0000 N   0  0  0  0  0  0  0  0  0  0  0  0
    7.6391   -6.0604    0.0000 C   0  0  0  0  0  0  0  0  0  0  0  0
    8.3536   -6.4729    0.0000 C   0  0  0  0  0  0  0  0  0  0  0  0
    6.9246   -6.4729    0.0000 C   0  0  0  0  0  0  0  0  0  0  0  0
    6.2102   -3.5854    0.0000 C   0  0  0  0  0  0  0  0  0  0  0  0
    4.7812   -2.7604    0.0000 C   0  0  0  0  0  0  0  0  0  0  0  0
    4.7812   -3.5854    0.0000 F   0  0  0  0  0  0  0  0  0  0  0  0
    4.0668   -2.3479    0.0000 C   0  0  0  0  0  0  0  0  0  0  0  0
    3.3523   -2.7604    0.0000 F   0  0  0  0  0  0  0  0  0  0  0  0
    2.6378   -1.5229    0.0000 C   0  0  0  0  0  0  0  0  0  0  0  0
    1.9233   -1.1104    0.0000 C   0  0  0  0  0  0  0  0  0  0  0  0
    1.1387   -1.3654    0.0000 N   0  0  0  0  0  0  0  0  0  0  0  0
  1  2  1  0  0  0  0
  2  3  4  0  0  0  0
  3  4  4  0  0  0  0
  4  5  4  0  0  0  0
  5  6  1  0  0  0  0
  6  7  2  0  0  0  0
  6  8  1  0  0  0  0
  5  9  4  0  0  0  0
  9 10  4  0  0  0  0
 10 11  1  0  0  0  0
 11 12  4  0  0  0  0
 12 13  1  0  0  0  0
 12 14  4  0  0  0  0
 14 15  1  0  0  0  0
 14 16  4  0  0  0  0
 16 17  1  0  0  0  0
 17 18  4  0  0  0  0
 18 19  4  0  0  0  0
 19 20  4  0  0  0  0
 20 21  4  0  0  0  0
 21 22  1  0  0  0  0
 22 23  1  0  0  0  0
 23 24  1  0  0  0  0
 24 25  1  0  0  0  0
 24 26  1  0  0  0  0
 21 27  4  0  0  0  0
 17 27  4  0  0  0  0
 16 28  4  0  0  0  0
 28 29  1  0  0  0  0
 28 30  4  0  0  0  0
 11 30  4  0  0  0  0
 30 31  1  0  0  0  0
 10 32  4  0  0  0  0
 32 33  4  0  0  0  0
  4 33  4  0  0  0  0
 33 34  4  0  0  0  0
  2 34  4  0  0  0  0
M  STY  1   1 DAT
M  SAL   1  1  34
M  SDT   1 MRV_IMPLICIT_H                                        
M  SDD   1     0.5304   -0.4125    DR    ALL  0       0  
M  SED   1 IMPL_H1
M  END
> <IC50(uM)>
0.055

> <Outcome>
1.0

> <BindingDB ID>
1045603

> <BindingDB MonomerID>
501661

> <BindingDB Ligand Name>
US11028054, Example 59

> <Curation/DataSource>
US Patent

> <Article DOI>
?

> <PMID>
?

> <Patent Number>
US11028054

> <Authors>
Thunuguntla, SS; Hosahalli, S; Panigrahi, SK; Schwarz, M; Arit, M

> <Link to Ligand in BindingDB>
http://www.bindingdb.org/bind/chemsearch/marvin/MolStructure.jsp?monomerid=501661

> <Link to Ligand-Target Pair in BindingDB>
http://www.bindingdb.org/jsp/dbsearch/PrimarySearch_ki.jsp?energyterm=kJ/mole&tag=r21&monomerid=501661&enzyme=Dihydroorotate+dehydrogenase&column=ki&startPg=0&Increment=50&submit=Search

> <PubChem CID>
?

> <PubChem SID>
?

$$$$

  Mrv2115 07222212352D          

 33 35  0  0  0  0            999 V2000
    0.7145   -3.7125    0.0000 C   0  0  0  0  0  0  0  0  0  0  0  0
    1.4289   -4.1250    0.0000 C   0  0  0  0  0  0  0  0  0  0  0  0
    2.1434   -3.7125    0.0000 C   0  0  0  0  0  0  0  0  0  0  0  0
    2.8579   -4.1250    0.0000 C   0  0  0  0  0  0  0  0  0  0  0  0
    2.8579   -4.9500    0.0000 C   0  0  0  0  0  0  0  0  0  0  0  0
    3.5724   -3.7125    0.0000 O   0  0  0  0  0  0  0  0  0  0  0  0
    3.5724   -2.8875    0.0000 C   0  0  0  0  0  0  0  0  0  0  0  0
    2.8579   -2.4750    0.0000 C   0  0  0  0  0  0  0  0  0  0  0  0
    2.8579   -1.6500    0.0000 C   0  0  0  0  0  0  0  0  0  0  0  0
    2.1434   -1.2375    0.0000 N   0  0  0  0  0  0  0  0  0  0  0  0
    1.3897   -1.5731    0.0000 N   0  0  0  0  0  0  0  0  0  0  0  0
    0.8377   -0.9600    0.0000 C   0  0  0  0  0  0  0  0  0  0  0  0
    0.0172   -1.0462    0.0000 C   0  0  0  0  0  0  0  0  0  0  0  0
   -0.4677   -0.3788    0.0000 C   0  0  0  0  0  0  0  0  0  0  0  0
    1.2502   -0.2455    0.0000 N   0  0  0  0  0  0  0  0  0  0  0  0
    0.9146    0.5082    0.0000 C   0  0  0  0  0  0  0  0  0  0  0  0
    2.0572   -0.4170    0.0000 C   0  0  0  0  0  0  0  0  0  0  0  0
    2.6703    0.1350    0.0000 O   0  0  0  0  0  0  0  0  0  0  0  0
    3.5724   -1.2375    0.0000 C   0  0  0  0  0  0  0  0  0  0  0  0
    3.5724   -0.4125    0.0000 F   0  0  0  0  0  0  0  0  0  0  0  0
    4.2868   -1.6500    0.0000 C   0  0  0  0  0  0  0  0  0  0  0  0
    4.2868   -2.4750    0.0000 C   0  0  0  0  0  0  0  0  0  0  0  0
    5.0013   -2.8875    0.0000 C   0  0  0  0  0  0  0  0  0  0  0  0
    5.7158   -2.4750    0.0000 O   0  0  0  0  0  0  0  0  0  0  0  0
    5.0013   -3.7125    0.0000 N   0  0  0  0  0  0  0  0  0  0  0  0
    5.7158   -4.1250    0.0000 C   0  0  0  0  0  0  0  0  0  0  0  0
    6.4302   -3.7125    0.0000 C   0  0  0  0  0  0  0  0  0  0  0  0
    7.1447   -4.1250    0.0000 C   0  0  0  0  0  0  0  0  0  0  0  0
    7.1447   -4.9500    0.0000 C   0  0  0  0  0  0  0  0  0  0  0  0
    6.4302   -5.3625    0.0000 C   0  0  0  0  0  0  0  0  0  0  0  0
    5.7158   -4.9500    0.0000 C   0  0  0  0  0  0  0  0  0  0  0  0
    5.0013   -5.3625    0.0000 N   0  0  0  0  0  0  0  0  0  0  0  0
    4.2868   -4.9500    0.0000 C   0  0  0  0  0  0  0  0  0  0  0  0
  1  2  1  0  0  0  0
  2  3  1  0  0  0  0
  3  4  1  0  0  0  0
  4  5  1  0  0  0  0
  4  6  1  0  0  0  0
  6  7  1  0  0  0  0
  7  8  4  0  0  0  0
  8  9  4  0  0  0  0
  9 10  1  0  0  0  0
 10 11  4  0  0  0  0
 11 12  4  0  0  0  0
 12 13  1  0  0  0  0
 13 14  1  0  0  0  0
 12 15  4  0  0  0  0
 15 16  1  0  0  0  0
 15 17  4  0  0  0  0
 10 17  4  0  0  0  0
 17 18  2  0  0  0  0
  9 19  4  0  0  0  0
 19 20  1  0  0  0  0
 19 21  4  0  0  0  0
 21 22  4  0  0  0  0
  7 22  4  0  0  0  0
 22 23  1  0  0  0  0
 23 24  2  0  0  0  0
 23 25  1  0  0  0  0
 25 26  1  0  0  0  0
 26 27  4  0  0  0  0
 27 28  4  0  0  0  0
 28 29  4  0  0  0  0
 29 30  4  0  0  0  0
 30 31  4  0  0  0  0
 26 31  4  0  0  0  0
 31 32  1  0  0  0  0
 32 33  1  0  0  0  0
M  END
> <IC50(uM)>
0.016

> <Outcome>
1.0

> <BindingDB ID>
972489; 1098643

> <BindingDB MonomerID>
470372

> <BindingDB Ligand Name>
4-(3-ethyl-4-methyl-5-oxo-4,5-dihydro-1H-1,2,4-triazol-1-yl)-5-fluoro-N-[2-(methylamino)-phenyl]-2-[(2S)-pentan-2-yloxy]benzamide::US10815215, Example 33; 4-(3-ethyl-4-methyl-5-oxo-4,5-dihydro-1H-1,2,4-triazol-1-yl)-5-fluoro-N-[2-(methylamino)-phenyl]-2-[(2S)-pentan-2-yloxy]benzamide::US10815215, Example 33::US11130745, Example 33

> <Curation/DataSource>
US Patent

> <Article DOI>
?

> <PMID>
?

> <Patent Number>
US10815215; US11130745

> <Authors>
Gradl, SN; Nguyen, D; Eis, K; Gunther, J; Stellfeld, T; Janzer, A; Christian, S; Muller, T; Sheikh, SE; Zhou, HJ; Zhao, C; Sykes, DB; Ferrara, SJ; Liu, K; Krober, M; Merz, C; Niehues, M; Schafer, M; Zimmermann, K; Nising, CF; Gradl, SN; Nguyen, D; Eis, K; Gunther, J; Stellfeld, T; Janzer, A; Christian, S; Muller, T; Sheikh, SE; Sykes, DB; Ferrara, SJ; Krober, M; Merz, C; Niehues, M; Schafer, M; Zimmermann, K; Nising, CF

> <Link to Ligand in BindingDB>
http://www.bindingdb.org/bind/chemsearch/marvin/MolStructure.jsp?monomerid=470372

> <Link to Ligand-Target Pair in BindingDB>
http://www.bindingdb.org/jsp/dbsearch/PrimarySearch_ki.jsp?energyterm=kJ/mole&tag=r21&monomerid=470372&enzyme=Dihydroorotate+dehydrogenase&column=ki&startPg=0&Increment=50&submit=Search

> <PubChem CID>
134470235

> <PubChem SID>
441609549

$$$$

  Mrv2115 07222212352D          

 22 23  0  0  0  0            999 V2000
    1.4289   -0.8250    0.0000 C   0  0  0  0  0  0  0  0  0  0  0  0
    1.4289   -1.6500    0.0000 C   0  0  0  0  0  0  0  0  0  0  0  0
    0.6039   -1.6500    0.0000 C   0  0  0  0  0  0  0  0  0  0  0  0
    2.2539   -1.6500    0.0000 C   0  0  0  0  0  0  0  0  0  0  0  0
    1.4289   -2.4750    0.0000 C   0  0  0  0  0  0  0  0  0  0  0  0
    2.0964   -2.9599    0.0000 O   0  0  0  0  0  0  0  0  0  0  0  0
    1.8414   -3.7445    0.0000 N   0  0  0  0  0  0  0  0  0  0  0  0
    1.0164   -3.7445    0.0000 C   0  0  0  0  0  0  0  0  0  0  0  0
    0.7615   -2.9599    0.0000 C   0  0  0  0  0  0  0  0  0  0  0  0
   -0.0231   -2.7050    0.0000 C   0  0  0  0  0  0  0  0  0  0  0  0
   -0.1946   -1.8980    0.0000 S   0  0  0  0  0  0  0  0  0  0  0  0
   -0.6362   -3.2570    0.0000 N   0  0  0  0  0  0  0  0  0  0  0  0
   -1.4208   -3.0021    0.0000 C   0  0  0  0  0  0  0  0  0  0  0  0
   -2.0339   -3.5541    0.0000 C   0  0  0  0  0  0  0  0  0  0  0  0
   -2.8186   -3.2992    0.0000 C   0  0  0  0  0  0  0  0  0  0  0  0
   -2.9901   -2.4922    0.0000 C   0  0  0  0  0  0  0  0  0  0  0  0
   -3.7747   -2.2373    0.0000 C   0  0  0  0  0  0  0  0  0  0  0  0
   -4.5593   -1.9823    0.0000 F   0  0  0  0  0  0  0  0  0  0  0  0
   -3.5198   -1.4526    0.0000 F   0  0  0  0  0  0  0  0  0  0  0  0
   -4.0296   -3.0219    0.0000 F   0  0  0  0  0  0  0  0  0  0  0  0
   -2.3770   -1.9402    0.0000 C   0  0  0  0  0  0  0  0  0  0  0  0
   -1.5924   -2.1951    0.0000 C   0  0  0  0  0  0  0  0  0  0  0  0
  1  2  1  0  0  0  0
  2  3  1  0  0  0  0
  2  4  1  0  0  0  0
  2  5  1  0  0  0  0
  5  6  4  0  0  0  0
  6  7  4  0  0  0  0
  7  8  4  0  0  0  0
  8  9  4  0  0  0  0
  5  9  4  0  0  0  0
  9 10  1  0  0  0  0
 10 11  2  0  0  0  0
 10 12  1  0  0  0  0
 12 13  1  0  0  0  0
 13 14  4  0  0  0  0
 14 15  4  0  0  0  0
 15 16  4  0  0  0  0
 16 17  1  0  0  0  0
 17 18  1  0  0  0  0
 17 19  1  0  0  0  0
 17 20  1  0  0  0  0
 16 21  4  0  0  0  0
 21 22  4  0  0  0  0
 13 22  4  0  0  0  0
M  END
> <IC50(uM)>
50.0

> <Outcome>
0.0

> <BindingDB ID>
50123299

> <BindingDB MonomerID>
50071391

> <BindingDB Ligand Name>
5-tert-Butyl-isoxazole-4-carbothioic acid (4-trifluoromethyl-phenyl)-amide::CHEMBL305002

> <Curation/DataSource>
ChEMBL

> <Article DOI>
10.1016/s0960-894x(98)00365-5

> <PMID>
9873513

> <Patent Number>
?

> <Authors>
Albert, R; Knecht, H; Andersen, E; Hungerford, V; Schreier, MH; Papageorgiou, C

> <Link to Ligand in BindingDB>
http://www.bindingdb.org/bind/chemsearch/marvin/MolStructure.jsp?monomerid=50071391

> <Link to Ligand-Target Pair in BindingDB>
http://www.bindingdb.org/jsp/dbsearch/PrimarySearch_ki.jsp?energyterm=kJ/mole&tag=r21&monomerid=50071391&enzyme=Dihydroorotate+dehydrogenase&column=ki&startPg=0&Increment=50&submit=Search

> <PubChem CID>
44310352

> <PubChem SID>
103965145

$$$$

  Mrv2115 07222212352D          

 28 32  0  0  0  0            999 V2000
    3.3523   -0.2854    0.0000 O   0  0  0  0  0  0  0  0  0  0  0  0
    3.3523   -1.1104    0.0000 C   0  0  0  0  0  0  0  0  0  0  0  0
    4.0668   -1.5229    0.0000 C   0  0  0  0  0  0  0  0  0  0  0  0
    4.7812   -1.1104    0.0000 C   0  0  0  0  0  0  0  0  0  0  0  0
    5.4957   -1.5229    0.0000 C   0  0  0  0  0  0  0  0  0  0  0  0
    5.4957   -2.3479    0.0000 C   0  0  0  0  0  0  0  0  0  0  0  0
    4.7812   -2.7604    0.0000 C   0  0  0  0  0  0  0  0  0  0  0  0
    4.0668   -2.3479    0.0000 C   0  0  0  0  0  0  0  0  0  0  0  0
    3.3523   -2.7604    0.0000 C   0  0  0  0  0  0  0  0  0  0  0  0
    3.3523   -3.5854    0.0000 O   0  0  0  0  0  0  0  0  0  0  0  0
    2.6378   -2.3479    0.0000 C   0  0  0  0  0  0  0  0  0  0  0  0
    2.6378   -1.5229    0.0000 C   0  0  0  0  0  0  0  0  0  0  0  0
    1.8532   -1.2680    0.0000 N   0  0  0  0  0  0  0  0  0  0  0  0
    1.3683   -1.9354    0.0000 N   0  0  0  0  0  0  0  0  0  0  0  0
    1.8532   -2.6029    0.0000 N   0  0  0  0  0  0  0  0  0  0  0  0
    1.5983   -3.3875    0.0000 C   0  0  0  0  0  0  0  0  0  0  0  0
    2.1503   -4.0006    0.0000 C   0  0  0  0  0  0  0  0  0  0  0  0
    1.8953   -4.7852    0.0000 C   0  0  0  0  0  0  0  0  0  0  0  0
    1.0884   -4.9567    0.0000 C   0  0  0  0  0  0  0  0  0  0  0  0
    0.8334   -5.7414    0.0000 C   0  0  0  0  0  0  0  0  0  0  0  0
    1.3855   -6.3545    0.0000 C   0  0  0  0  0  0  0  0  0  0  0  0
    1.1305   -7.1391    0.0000 C   0  0  0  0  0  0  0  0  0  0  0  0
    0.3236   -7.3106    0.0000 C   0  0  0  0  0  0  0  0  0  0  0  0
   -0.2285   -6.6975    0.0000 C   0  0  0  0  0  0  0  0  0  0  0  0
   -1.0354   -6.8690    0.0000 O   0  0  0  0  0  0  0  0  0  0  0  0
    0.0265   -5.9129    0.0000 C   0  0  0  0  0  0  0  0  0  0  0  0
    0.5363   -4.3437    0.0000 C   0  0  0  0  0  0  0  0  0  0  0  0
    0.7913   -3.5590    0.0000 C   0  0  0  0  0  0  0  0  0  0  0  0
  1  2  2  0  0  0  0
  2  3  1  0  0  0  0
  3  4  4  0  0  0  0
  4  5  4  0  0  0  0
  5  6  4  0  0  0  0
  6  7  4  0  0  0  0
  7  8  4  0  0  0  0
  3  8  4  0  0  0  0
  8  9  1  0  0  0  0
  9 10  2  0  0  0  0
  9 11  1  0  0  0  0
 11 12  4  0  0  0  0
  2 12  1  0  0  0  0
 12 13  4  0  0  0  0
 13 14  4  0  0  0  0
 14 15  4  0  0  0  0
 11 15  4  0  0  0  0
 15 16  1  0  0  0  0
 16 17  4  0  0  0  0
 17 18  4  0  0  0  0
 18 19  4  0  0  0  0
 19 20  1  0  0  0  0
 20 21  4  0  0  0  0
 21 22  4  0  0  0  0
 22 23  4  0  0  0  0
 23 24  4  0  0  0  0
 24 25  1  0  0  0  0
 24 26  4  0  0  0  0
 20 26  4  0  0  0  0
 19 27  4  0  0  0  0
 27 28  4  0  0  0  0
 16 28  4  0  0  0  0
M  END
> <IC50(uM)>
0.021

> <Outcome>
1.0

> <BindingDB ID>
51338184

> <BindingDB MonomerID>
50541658

> <BindingDB Ligand Name>
CHEMBL4641558

> <Curation/DataSource>
ChEMBL

> <Article DOI>
10.1021/acs.jmedchem.0c00512

> <PMID>
32496056

> <Patent Number>
?

> <Authors>
Zuo, Z; Liu, X; Qian, X; Zeng, T; Sang, N; Liu, H; Zhou, Y; Tao, L; Zhou, X; Su, N; Yu, Y; Chen, Q; Luo, Y; Zhao, Y

> <Link to Ligand in BindingDB>
http://www.bindingdb.org/bind/chemsearch/marvin/MolStructure.jsp?monomerid=50541658

> <Link to Ligand-Target Pair in BindingDB>
http://www.bindingdb.org/jsp/dbsearch/PrimarySearch_ki.jsp?energyterm=kJ/mole&tag=r21&monomerid=50541658&enzyme=Dihydroorotate+dehydrogenase&column=ki&startPg=0&Increment=50&submit=Search

> <PubChem CID>
156016847

> <PubChem SID>
442143221

$$$$

  Mrv2115 07222212352D          

 22 25  0  0  0  0            999 V2000
    3.3523   -0.2854    0.0000 O   0  0  0  0  0  0  0  0  0  0  0  0
    3.3523   -1.1104    0.0000 C   0  0  0  0  0  0  0  0  0  0  0  0
    4.0668   -1.5229    0.0000 C   0  0  0  0  0  0  0  0  0  0  0  0
    4.7812   -1.1104    0.0000 C   0  0  0  0  0  0  0  0  0  0  0  0
    5.4957   -1.5229    0.0000 C   0  0  0  0  0  0  0  0  0  0  0  0
    5.4957   -2.3479    0.0000 C   0  0  0  0  0  0  0  0  0  0  0  0
    4.7812   -2.7604    0.0000 C   0  0  0  0  0  0  0  0  0  0  0  0
    4.0668   -2.3479    0.0000 C   0  0  0  0  0  0  0  0  0  0  0  0
    3.3523   -2.7604    0.0000 C   0  0  0  0  0  0  0  0  0  0  0  0
    3.3523   -3.5854    0.0000 O   0  0  0  0  0  0  0  0  0  0  0  0
    2.6378   -2.3479    0.0000 C   0  0  0  0  0  0  0  0  0  0  0  0
    2.6378   -1.5229    0.0000 C   0  0  0  0  0  0  0  0  0  0  0  0
    1.8532   -1.2680    0.0000 N   0  0  0  0  0  0  0  0  0  0  0  0
    1.3683   -1.9354    0.0000 N   0  0  0  0  0  0  0  0  0  0  0  0
    1.8532   -2.6029    0.0000 N   0  0  0  0  0  0  0  0  0  0  0  0
    1.5983   -3.3875    0.0000 C   0  0  0  0  0  0  0  0  0  0  0  0
    2.1503   -4.0006    0.0000 C   0  0  0  0  0  0  0  0  0  0  0  0
    1.8953   -4.7852    0.0000 C   0  0  0  0  0  0  0  0  0  0  0  0
    1.0884   -4.9567    0.0000 C   0  0  0  0  0  0  0  0  0  0  0  0
    0.5363   -4.3437    0.0000 C   0  0  0  0  0  0  0  0  0  0  0  0
   -0.2706   -4.5152    0.0000 I   0  0  0  0  0  0  0  0  0  0  0  0
    0.7913   -3.5590    0.0000 C   0  0  0  0  0  0  0  0  0  0  0  0
  1  2  2  0  0  0  0
  2  3  1  0  0  0  0
  3  4  4  0  0  0  0
  4  5  4  0  0  0  0
  5  6  4  0  0  0  0
  6  7  4  0  0  0  0
  7  8  4  0  0  0  0
  3  8  4  0  0  0  0
  8  9  1  0  0  0  0
  9 10  2  0  0  0  0
  9 11  1  0  0  0  0
 11 12  4  0  0  0  0
  2 12  1  0  0  0  0
 12 13  4  0  0  0  0
 13 14  4  0  0  0  0
 14 15  4  0  0  0  0
 11 15  4  0  0  0  0
 15 16  1  0  0  0  0
 16 17  4  0  0  0  0
 17 18  4  0  0  0  0
 18 19  4  0  0  0  0
 19 20  4  0  0  0  0
 20 21  1  0  0  0  0
 20 22  4  0  0  0  0
 16 22  4  0  0  0  0
M  END
> <IC50(uM)>
1.0

> <Outcome>
1.0

> <BindingDB ID>
51338165

> <BindingDB MonomerID>
50541639

> <BindingDB Ligand Name>
CHEMBL4643505

> <Curation/DataSource>
ChEMBL

> <Article DOI>
10.1021/acs.jmedchem.0c00512

> <PMID>
32496056

> <Patent Number>
?

> <Authors>
Zuo, Z; Liu, X; Qian, X; Zeng, T; Sang, N; Liu, H; Zhou, Y; Tao, L; Zhou, X; Su, N; Yu, Y; Chen, Q; Luo, Y; Zhao, Y

> <Link to Ligand in BindingDB>
http://www.bindingdb.org/bind/chemsearch/marvin/MolStructure.jsp?monomerid=50541639

> <Link to Ligand-Target Pair in BindingDB>
http://www.bindingdb.org/jsp/dbsearch/PrimarySearch_ki.jsp?energyterm=kJ/mole&tag=r21&monomerid=50541639&enzyme=Dihydroorotate+dehydrogenase&column=ki&startPg=0&Increment=50&submit=Search

> <PubChem CID>
156017784

> <PubChem SID>
442143202

$$$$

  Mrv2115 07222212352D          

 22 24  0  0  0  0            999 V2000
    4.0668    2.3479    0.0000 C   0  0  0  0  0  0  0  0  0  0  0  0
    3.3523    1.9354    0.0000 C   0  0  0  0  0  0  0  0  0  0  0  0
    3.3523    1.1104    0.0000 C   0  0  0  0  0  0  0  0  0  0  0  0
    2.6378    0.6979    0.0000 C   0  0  0  0  0  0  0  0  0  0  0  0
    2.6378   -0.1271    0.0000 N   0  0  0  0  0  0  0  0  0  0  0  0
    1.9233   -0.5396    0.0000 C   0  0  0  0  0  0  0  0  0  0  0  0
    1.9233   -1.3646    0.0000 C   0  0  0  0  0  0  0  0  0  0  0  0
    1.2089   -1.7771    0.0000 C   0  0  0  0  0  0  0  0  0  0  0  0
    0.4944   -1.3646    0.0000 C   0  0  0  0  0  0  0  0  0  0  0  0
   -0.2201   -1.7771    0.0000 C   0  0  0  0  0  0  0  0  0  0  0  0
   -0.9345   -2.1896    0.0000 F   0  0  0  0  0  0  0  0  0  0  0  0
   -0.6326   -1.0626    0.0000 F   0  0  0  0  0  0  0  0  0  0  0  0
    0.1924   -2.4915    0.0000 F   0  0  0  0  0  0  0  0  0  0  0  0
    0.4944   -0.5396    0.0000 C   0  0  0  0  0  0  0  0  0  0  0  0
   -0.2201   -0.1271    0.0000 F   0  0  0  0  0  0  0  0  0  0  0  0
    1.2089   -0.1271    0.0000 C   0  0  0  0  0  0  0  0  0  0  0  0
    1.9233    1.1104    0.0000 N   0  0  0  0  0  0  0  0  0  0  0  0
    1.1387    0.8555    0.0000 N   0  0  0  0  0  0  0  0  0  0  0  0
    0.6538    1.5229    0.0000 C   0  0  0  0  0  0  0  0  0  0  0  0
    1.1387    2.1904    0.0000 N   0  0  0  0  0  0  0  0  0  0  0  0
    1.9233    1.9354    0.0000 C   0  0  0  0  0  0  0  0  0  0  0  0
    2.6378    2.3479    0.0000 N   0  0  0  0  0  0  0  0  0  0  0  0
  1  2  1  0  0  0  0
  2  3  4  0  0  0  0
  3  4  4  0  0  0  0
  4  5  1  0  0  0  0
  5  6  1  0  0  0  0
  6  7  4  0  0  0  0
  7  8  4  0  0  0  0
  8  9  4  0  0  0  0
  9 10  1  0  0  0  0
 10 11  1  0  0  0  0
 10 12  1  0  0  0  0
 10 13  1  0  0  0  0
  9 14  4  0  0  0  0
 14 15  1  0  0  0  0
 14 16  4  0  0  0  0
  6 16  4  0  0  0  0
  4 17  4  0  0  0  0
 17 18  4  0  0  0  0
 18 19  4  0  0  0  0
 19 20  4  0  0  0  0
 20 21  4  0  0  0  0
 17 21  4  0  0  0  0
 21 22  4  0  0  0  0
  2 22  4  0  0  0  0
M  END
> <IC50(uM)>
100.0

> <Outcome>
0.0

> <BindingDB ID>
52455

> <BindingDB MonomerID>
28843

> <BindingDB Ligand Name>
N-[3-fluoro-4-(trifluoromethyl)phenyl]-5-methyl-[1,2,4]triazolo[1,5-a]pyrimidin-7-amine::triazolopyrimidine-based compound, DSM125

> <Curation/DataSource>
Curated from the literature by BindingDB

> <Article DOI>
10.1021/jm801343r

> <PMID>
19296651

> <Patent Number>
?

> <Authors>
Gujjar, R; Marwaha, A; El Mazouni, F; White, J; White, KL; Creason, S; Shackleford, DM; Baldwin, J; Charman, WN; Buckner, FS; Charman, S; Rathod, PK; Phillips, MA

> <Link to Ligand in BindingDB>
http://www.bindingdb.org/bind/chemsearch/marvin/MolStructure.jsp?monomerid=28843

> <Link to Ligand-Target Pair in BindingDB>
http://www.bindingdb.org/jsp/dbsearch/PrimarySearch_ki.jsp?energyterm=kJ/mole&tag=r21&monomerid=28843&enzyme=Dihydroorotate+Dehydrogenase+%28DHODH%29&column=ki&startPg=0&Increment=50&submit=Search

> <PubChem CID>
25263434

> <PubChem SID>
58098031

$$$$

  Mrv2115 07222212352D          

 27 29  0  0  0  0            999 V2000
   -2.8579   -1.6500    0.0000 C   0  0  0  0  0  0  0  0  0  0  0  0
   -2.1434   -1.2375    0.0000 C   0  0  0  0  0  0  0  0  0  0  0  0
   -1.4289   -1.6500    0.0000 C   0  0  0  0  0  0  0  0  0  0  0  0
   -2.1434   -0.4125    0.0000 O   0  0  0  0  0  0  0  0  0  0  0  0
   -1.4289    0.0000    0.0000 C   0  0  0  0  0  0  0  0  0  0  0  0
   -0.7145   -0.4125    0.0000 O   0  0  0  0  0  0  0  0  0  0  0  0
   -1.4289    0.8250    0.0000 C   0  0  0  0  0  0  0  0  0  0  0  0
   -2.1434    1.2375    0.0000 C   0  0  0  0  0  0  0  0  0  0  0  0
   -2.1434    2.0625    0.0000 C   0  0  0  0  0  0  0  0  0  0  0  0
   -1.4289    2.4750    0.0000 C   0  0  0  0  0  0  0  0  0  0  0  0
   -0.7145    2.0625    0.0000 C   0  0  0  0  0  0  0  0  0  0  0  0
   -0.7145    1.2375    0.0000 C   0  0  0  0  0  0  0  0  0  0  0  0
    0.0000    0.8250    0.0000 C   0  0  0  0  0  0  0  0  0  0  0  0
    0.0000    0.0000    0.0000 N   0  0  0  0  0  0  0  0  0  0  0  0
    0.7145   -0.4125    0.0000 N   0  0  0  0  0  0  0  0  0  0  0  0
    0.7145   -1.2375    0.0000 C   0  0  0  0  0  0  0  0  0  0  0  0
    1.3819   -1.7224    0.0000 N   0  0  0  0  0  0  0  0  0  0  0  0
    1.1270   -2.5070    0.0000 C   0  0  0  0  0  0  0  0  0  0  0  0
    1.6119   -3.1745    0.0000 C   0  0  0  0  0  0  0  0  0  0  0  0
    2.4324   -3.0882    0.0000 C   0  0  0  0  0  0  0  0  0  0  0  0
    2.9173   -3.7557    0.0000 C   0  0  0  0  0  0  0  0  0  0  0  0
    2.5817   -4.5094    0.0000 C   0  0  0  0  0  0  0  0  0  0  0  0
    1.7613   -4.5956    0.0000 C   0  0  0  0  0  0  0  0  0  0  0  0
    1.2763   -3.9282    0.0000 C   0  0  0  0  0  0  0  0  0  0  0  0
    0.4559   -4.0144    0.0000 Cl  0  0  0  0  0  0  0  0  0  0  0  0
    0.3020   -2.5070    0.0000 C   0  0  0  0  0  0  0  0  0  0  0  0
    0.0470   -1.7224    0.0000 S   0  0  0  0  0  0  0  0  0  0  0  0
  1  2  1  0  0  0  0
  2  3  1  0  0  0  0
  2  4  1  0  0  0  0
  4  5  1  0  0  0  0
  5  6  2  0  0  0  0
  5  7  1  0  0  0  0
  7  8  4  0  0  0  0
  8  9  4  0  0  0  0
  9 10  4  0  0  0  0
 10 11  4  0  0  0  0
 11 12  4  0  0  0  0
  7 12  4  0  0  0  0
 12 13  1  0  0  0  0
 13 14  2  0  0  0  0
 14 15  1  0  0  0  0
 15 16  1  0  0  0  0
 16 17  4  0  0  0  0
 17 18  4  0  0  0  0
 18 19  1  0  0  0  0
 19 20  4  0  0  0  0
 20 21  4  0  0  0  0
 21 22  4  0  0  0  0
 22 23  4  0  0  0  0
 23 24  4  0  0  0  0
 19 24  4  0  0  0  0
 24 25  1  0  0  0  0
 18 26  4  0  0  0  0
 26 27  4  0  0  0  0
 16 27  4  0  0  0  0
M  END
> <IC50(uM)>
3.2545

> <Outcome>
0.0

> <BindingDB ID>
1001137; 1001139

> <BindingDB MonomerID>
482823

> <BindingDB Ligand Name>
US10919869, No.  A3::US10919869, No.  A5

> <Curation/DataSource>
US Patent

> <Article DOI>
?

> <PMID>
?

> <Patent Number>
US10919869

> <Authors>
Li, H; Xu, Y; Wang, R; Zhao, Z; Song, W; Xu, L

> <Link to Ligand in BindingDB>
http://www.bindingdb.org/bind/chemsearch/marvin/MolStructure.jsp?monomerid=482823

> <Link to Ligand-Target Pair in BindingDB>
http://www.bindingdb.org/jsp/dbsearch/PrimarySearch_ki.jsp?energyterm=kJ/mole&tag=r21&monomerid=482823&enzyme=Dihydroorotate+dehydrogenase&column=ki&startPg=0&Increment=50&submit=Search

> <PubChem CID>
132157915

> <PubChem SID>
443551964

$$$$

  Mrv2115 07222212352D          

 25 28  0  0  0  0            999 V2000
    0.8838   -2.1500    0.0000 C   0  0  0  0  0  0  0  0  0  0  0  0
    1.1387   -1.3654    0.0000 N   0  0  0  0  0  0  0  0  0  0  0  0
    0.6538   -0.6979    0.0000 C   0  0  0  0  0  0  0  0  0  0  0  0
   -0.1712   -0.6979    0.0000 C   0  0  0  0  0  0  0  0  0  0  0  0
   -0.5837   -1.4124    0.0000 C   0  0  0  0  0  0  0  0  0  0  0  0
   -1.4087   -1.4124    0.0000 C   0  0  0  0  0  0  0  0  0  0  0  0
   -1.8212   -0.6979    0.0000 C   0  0  0  0  0  0  0  0  0  0  0  0
   -2.6462   -0.6979    0.0000 C   0  0  0  0  0  0  0  0  0  0  0  0
   -3.0587   -1.4124    0.0000 C   0  0  0  0  0  0  0  0  0  0  0  0
   -3.8837   -1.4124    0.0000 C   0  0  0  0  0  0  0  0  0  0  0  0
   -4.2962   -0.6979    0.0000 C   0  0  0  0  0  0  0  0  0  0  0  0
   -3.8837    0.0165    0.0000 C   0  0  0  0  0  0  0  0  0  0  0  0
   -3.0587    0.0165    0.0000 C   0  0  0  0  0  0  0  0  0  0  0  0
   -1.4087    0.0165    0.0000 C   0  0  0  0  0  0  0  0  0  0  0  0
   -0.5837    0.0165    0.0000 C   0  0  0  0  0  0  0  0  0  0  0  0
    1.1387   -0.0305    0.0000 N   0  0  0  0  0  0  0  0  0  0  0  0
    1.9233   -0.2854    0.0000 C   0  0  0  0  0  0  0  0  0  0  0  0
    2.6378    0.1271    0.0000 C   0  0  0  0  0  0  0  0  0  0  0  0
    3.3523   -0.2854    0.0000 C   0  0  0  0  0  0  0  0  0  0  0  0
    3.3523   -1.1104    0.0000 C   0  0  0  0  0  0  0  0  0  0  0  0
    2.6378   -1.5229    0.0000 C   0  0  0  0  0  0  0  0  0  0  0  0
    2.6378   -2.3479    0.0000 C   0  0  0  0  0  0  0  0  0  0  0  0
    3.3523   -2.7604    0.0000 O   0  0  0  0  0  0  0  0  0  0  0  0
    1.9233   -2.7604    0.0000 O   0  0  0  0  0  0  0  0  0  0  0  0
    1.9233   -1.1104    0.0000 C   0  0  0  0  0  0  0  0  0  0  0  0
  1  2  1  0  0  0  0
  2  3  4  0  0  0  0
  3  4  1  0  0  0  0
  4  5  4  0  0  0  0
  5  6  4  0  0  0  0
  6  7  4  0  0  0  0
  7  8  1  0  0  0  0
  8  9  4  0  0  0  0
  9 10  4  0  0  0  0
 10 11  4  0  0  0  0
 11 12  4  0  0  0  0
 12 13  4  0  0  0  0
  8 13  4  0  0  0  0
  7 14  4  0  0  0  0
 14 15  4  0  0  0  0
  4 15  4  0  0  0  0
  3 16  4  0  0  0  0
 16 17  4  0  0  0  0
 17 18  4  0  0  0  0
 18 19  4  0  0  0  0
 19 20  4  0  0  0  0
 20 21  4  0  0  0  0
 21 22  1  0  0  0  0
 22 23  2  0  0  0  0
 22 24  1  0  0  0  0
 21 25  4  0  0  0  0
 17 25  4  0  0  0  0
  2 25  4  0  0  0  0
M  END
> <IC50(uM)>
1.6

> <Outcome>
0.0

> <BindingDB ID>
297746

> <BindingDB MonomerID>
155402

> <BindingDB Ligand Name>
US9006454, I8

> <Curation/DataSource>
US Patent

> <Article DOI>
?

> <PMID>
?

> <Patent Number>
US9006454

> <Authors>
Thunuguntla, SS; Subramanya, H; Kunnam, SR; Sanivaru Vijay, SR; Bingi, C; Kusanur, R; Schwarz, M; Arlt, M

> <Link to Ligand in BindingDB>
http://www.bindingdb.org/bind/chemsearch/marvin/MolStructure.jsp?monomerid=155402

> <Link to Ligand-Target Pair in BindingDB>
http://www.bindingdb.org/jsp/dbsearch/PrimarySearch_ki.jsp?energyterm=kJ/mole&tag=r21&monomerid=155402&enzyme=Dihydroorotate+dehydrogenase&column=ki&startPg=0&Increment=50&submit=Search

> <PubChem CID>
17861155

> <PubChem SID>
253658339

$$$$

  Mrv2115 07222212352D          

 30 31  0  0  0  0            999 V2000
   -2.1434   -1.2375    0.0000 C   0  0  0  0  0  0  0  0  0  0  0  0
   -2.8579   -1.6500    0.0000 O   0  0  0  0  0  0  0  0  0  0  0  0
   -2.8579   -2.4750    0.0000 C   0  0  0  0  0  0  0  0  0  0  0  0
   -2.1434   -2.8875    0.0000 C   0  0  0  0  0  0  0  0  0  0  0  0
   -2.1434   -3.7125    0.0000 C   0  0  0  0  0  0  0  0  0  0  0  0
   -2.8579   -4.1250    0.0000 C   0  0  0  0  0  0  0  0  0  0  0  0
   -3.5724   -3.7125    0.0000 C   0  0  0  0  0  0  0  0  0  0  0  0
   -4.2868   -4.1250    0.0000 C   0  0  0  0  0  0  0  0  0  0  0  0
   -4.2868   -4.9500    0.0000 C   0  0  0  0  0  0  0  0  0  0  0  0
   -5.0013   -5.3625    0.0000 C   0  0  0  0  0  0  0  0  0  0  0  0
   -5.7158   -4.9500    0.0000 C   0  0  0  0  0  0  0  0  0  0  0  0
   -6.4302   -5.3625    0.0000 N   0  0  0  0  0  0  0  0  0  0  0  0
   -6.4302   -6.1875    0.0000 C   0  0  0  0  0  0  0  0  0  0  0  0
   -5.7158   -6.6000    0.0000 C   0  0  0  0  0  0  0  0  0  0  0  0
   -5.7158   -7.4250    0.0000 N   0  0  0  0  0  0  0  0  0  0  0  0
   -6.4302   -7.8375    0.0000 C   0  0  0  0  0  0  0  0  0  0  0  0
   -7.1447   -7.4250    0.0000 C   0  0  0  0  0  0  0  0  0  0  0  0
   -7.1447   -6.6000    0.0000 C   0  0  0  0  0  0  0  0  0  0  0  0
   -7.8592   -6.1875    0.0000 C   0  0  0  0  0  0  0  0  0  0  0  0
   -7.8592   -5.3625    0.0000 O   0  0  0  0  0  0  0  0  0  0  0  0
   -8.5737   -6.6000    0.0000 O   0  5  0  0  0  0  0  0  0  0  0  0
   -5.7158   -4.1250    0.0000 C   0  0  0  0  0  0  0  0  0  0  0  0
   -6.4302   -3.7125    0.0000 O   0  0  0  0  0  0  0  0  0  0  0  0
   -6.4302   -2.8875    0.0000 C   0  0  0  0  0  0  0  0  0  0  0  0
   -5.6052   -2.8875    0.0000 F   0  0  0  0  0  0  0  0  0  0  0  0
   -7.2552   -2.8875    0.0000 F   0  0  0  0  0  0  0  0  0  0  0  0
   -6.4302   -2.0625    0.0000 F   0  0  0  0  0  0  0  0  0  0  0  0
   -5.0013   -3.7125    0.0000 C   0  0  0  0  0  0  0  0  0  0  0  0
   -3.5724   -2.8875    0.0000 C   0  0  0  0  0  0  0  0  0  0  0  0
   -9.2881   -7.0125    0.0000 Li  0  3  0  0  0  0  0  0  0  0  0  0
  1  2  1  0  0  0  0
  2  3  1  0  0  0  0
  3  4  4  0  0  0  0
  4  5  4  0  0  0  0
  5  6  4  0  0  0  0
  6  7  4  0  0  0  0
  7  8  1  0  0  0  0
  8  9  4  0  0  0  0
  9 10  4  0  0  0  0
 10 11  4  0  0  0  0
 11 12  1  0  0  0  0
 12 13  1  0  0  0  0
 13 14  4  0  0  0  0
 14 15  4  0  0  0  0
 15 16  4  0  0  0  0
 16 17  4  0  0  0  0
 17 18  4  0  0  0  0
 13 18  4  0  0  0  0
 18 19  1  0  0  0  0
 19 20  2  0  0  0  0
 19 21  1  0  0  0  0
 11 22  4  0  0  0  0
 22 23  1  0  0  0  0
 23 24  1  0  0  0  0
 24 25  1  0  0  0  0
 24 26  1  0  0  0  0
 24 27  1  0  0  0  0
 22 28  4  0  0  0  0
  8 28  4  0  0  0  0
  7 29  4  0  0  0  0
  3 29  4  0  0  0  0
M  CHG  2  21  -1  30   1
M  END
> <IC50(uM)>
0.014

> <Outcome>
1.0

> <BindingDB ID>
246907

> <BindingDB MonomerID>
119814

> <BindingDB Ligand Name>
US8691852, 23

> <Curation/DataSource>
US Patent

> <Article DOI>
?

> <PMID>
?

> <Patent Number>
US8691852

> <Authors>
Castro Palomino Laria, JC; Erra Sola, M; Lozoya Toribio, ME; Navarro Romero, E

> <Link to Ligand in BindingDB>
http://www.bindingdb.org/bind/chemsearch/marvin/MolStructure.jsp?monomerid=119814

> <Link to Ligand-Target Pair in BindingDB>
http://www.bindingdb.org/jsp/dbsearch/PrimarySearch_ki.jsp?energyterm=kJ/mole&tag=r21&monomerid=119814&enzyme=Dihydroorotate+dehydrogenase&column=ki&startPg=0&Increment=50&submit=Search

> <PubChem CID>
24987187

> <PubChem SID>
220230608

$$$$

  Mrv2115 07222212352D          

 21 22  0  0  0  0            999 V2000
    1.4289    0.0000    0.0000 O   0  0  0  0  0  0  0  0  0  0  0  0
    2.1434   -0.4125    0.0000 C   0  0  0  0  0  0  0  0  0  0  0  0
    2.8579    0.0000    0.0000 O   0  0  0  0  0  0  0  0  0  0  0  0
    2.1434   -1.2375    0.0000 C   0  0  0  0  0  0  0  0  0  0  0  0
    1.4289   -1.6500    0.0000 C   0  0  0  0  0  0  0  0  0  0  0  0
    1.4289   -2.4750    0.0000 C   0  0  0  0  0  0  0  0  0  0  0  0
    2.1434   -2.8875    0.0000 C   0  0  0  0  0  0  0  0  0  0  0  0
    2.8579   -2.4750    0.0000 N   0  0  0  0  0  0  0  0  0  0  0  0
    2.8579   -1.6500    0.0000 C   0  0  0  0  0  0  0  0  0  0  0  0
    3.5724   -1.2375    0.0000 N   0  0  0  0  0  0  0  0  0  0  0  0
    4.2868   -1.6500    0.0000 C   0  0  0  0  0  0  0  0  0  0  0  0
    5.0013   -1.2375    0.0000 C   0  0  0  0  0  0  0  0  0  0  0  0
    5.7158   -1.6500    0.0000 C   0  0  0  0  0  0  0  0  0  0  0  0
    5.7158   -2.4750    0.0000 C   0  0  0  0  0  0  0  0  0  0  0  0
    6.4302   -2.8875    0.0000 O   0  0  0  0  0  0  0  0  0  0  0  0
    7.1447   -2.4750    0.0000 C   0  0  0  0  0  0  0  0  0  0  0  0
    7.8592   -2.0625    0.0000 F   0  0  0  0  0  0  0  0  0  0  0  0
    7.5572   -3.1895    0.0000 F   0  0  0  0  0  0  0  0  0  0  0  0
    6.7322   -1.7605    0.0000 F   0  0  0  0  0  0  0  0  0  0  0  0
    5.0013   -2.8875    0.0000 C   0  0  0  0  0  0  0  0  0  0  0  0
    4.2868   -2.4750    0.0000 C   0  0  0  0  0  0  0  0  0  0  0  0
  1  2  2  0  0  0  0
  2  3  1  0  0  0  0
  2  4  1  0  0  0  0
  4  5  4  0  0  0  0
  5  6  4  0  0  0  0
  6  7  4  0  0  0  0
  7  8  4  0  0  0  0
  8  9  4  0  0  0  0
  4  9  4  0  0  0  0
  9 10  1  0  0  0  0
 10 11  1  0  0  0  0
 11 12  4  0  0  0  0
 12 13  4  0  0  0  0
 13 14  4  0  0  0  0
 14 15  1  0  0  0  0
 15 16  1  0  0  0  0
 16 17  1  0  0  0  0
 16 18  1  0  0  0  0
 16 19  1  0  0  0  0
 14 20  4  0  0  0  0
 20 21  4  0  0  0  0
 11 21  4  0  0  0  0
M  END
> <IC50(uM)>
0.5

> <Outcome>
1.0

> <BindingDB ID>
50527778

> <BindingDB MonomerID>
50201622

> <BindingDB Ligand Name>
CHEMBL3914938

> <Curation/DataSource>
ChEMBL

> <Article DOI>
10.1021/acsmedchemlett.6b00316

> <PMID>
27994748

> <Patent Number>
?

> <Authors>
Lewis, TA; Sykes, DB; Law, JM; Mu??oz, B; Rustiguel, JK; Nonato, MC; Scadden, DT; Schreiber, SL

> <Link to Ligand in BindingDB>
http://www.bindingdb.org/bind/chemsearch/marvin/MolStructure.jsp?monomerid=50201622

> <Link to Ligand-Target Pair in BindingDB>
http://www.bindingdb.org/jsp/dbsearch/PrimarySearch_ki.jsp?energyterm=kJ/mole&tag=r21&monomerid=50201622&enzyme=Dihydroorotate+dehydrogenase&column=ki&startPg=0&Increment=50&submit=Search

> <PubChem CID>
25706226

> <PubChem SID>
375979410

$$$$

  Mrv2115 07222212352D          

 23 24  0  0  0  0            999 V2000
    2.1434   -0.4125    0.0000 C   0  0  0  0  0  0  0  0  0  0  0  0
    2.1434   -1.2375    0.0000 O   0  0  0  0  0  0  0  0  0  0  0  0
    1.4289   -1.6500    0.0000 C   0  0  0  0  0  0  0  0  0  0  0  0
    0.7145   -1.2375    0.0000 O   0  0  0  0  0  0  0  0  0  0  0  0
    1.4289   -2.4750    0.0000 C   0  0  0  0  0  0  0  0  0  0  0  0
    2.1434   -2.8875    0.0000 C   0  0  0  0  0  0  0  0  0  0  0  0
    2.1434   -3.7125    0.0000 C   0  0  0  0  0  0  0  0  0  0  0  0
    1.4289   -4.1250    0.0000 C   0  0  0  0  0  0  0  0  0  0  0  0
    0.7145   -3.7125    0.0000 C   0  0  0  0  0  0  0  0  0  0  0  0
    0.0000   -4.1250    0.0000 C   0  0  0  0  0  0  0  0  0  0  0  0
    0.0000   -4.9500    0.0000 C   0  0  0  0  0  0  0  0  0  0  0  0
   -0.7145   -5.3625    0.0000 C   0  0  0  0  0  0  0  0  0  0  0  0
   -0.7145   -6.1875    0.0000 C   0  0  0  0  0  0  0  0  0  0  0  0
   -0.0000   -6.6000    0.0000 C   0  0  0  0  0  0  0  0  0  0  0  0
   -0.0000   -7.4250    0.0000 O   0  0  0  0  0  0  0  0  0  0  0  0
    0.7145   -6.1875    0.0000 O   0  0  0  0  0  0  0  0  0  0  0  0
   -1.4289   -6.6000    0.0000 N   0  0  0  0  0  0  0  0  0  0  0  0
   -2.1434   -6.1875    0.0000 C   0  0  0  0  0  0  0  0  0  0  0  0
   -2.8579   -6.6000    0.0000 O   0  0  0  0  0  0  0  0  0  0  0  0
   -2.1434   -5.3625    0.0000 N   0  0  0  0  0  0  0  0  0  0  0  0
   -1.4289   -4.9500    0.0000 C   0  0  0  0  0  0  0  0  0  0  0  0
   -1.4289   -4.1250    0.0000 O   0  0  0  0  0  0  0  0  0  0  0  0
    0.7145   -2.8875    0.0000 C   0  0  0  0  0  0  0  0  0  0  0  0
  1  2  1  0  0  0  0
  2  3  1  0  0  0  0
  3  4  2  0  0  0  0
  3  5  1  0  0  0  0
  5  6  4  0  0  0  0
  6  7  4  0  0  0  0
  7  8  4  0  0  0  0
  8  9  4  0  0  0  0
  9 10  1  0  0  0  0
 10 11  1  0  0  0  0
 11 12  1  0  0  0  0
 12 13  4  0  0  0  0
 13 14  1  0  0  0  0
 14 15  2  0  0  0  0
 14 16  1  0  0  0  0
 13 17  4  0  0  0  0
 17 18  4  0  0  0  0
 18 19  2  0  0  0  0
 18 20  4  0  0  0  0
 20 21  4  0  0  0  0
 12 21  4  0  0  0  0
 21 22  2  0  0  0  0
  9 23  4  0  0  0  0
  5 23  4  0  0  0  0
M  STY  2   1 DAT   2 DAT
M  SAL   1  1  17
M  SDT   1 MRV_IMPLICIT_H                                        
M  SDD   1     0.6482   -0.4125    DR    ALL  0       0  
M  SED   1 IMPL_H1
M  SAL   2  1  20
M  SDT   2 MRV_IMPLICIT_H                                        
M  SDD   2     0.5304   -0.4125    DR    ALL  0       0  
M  SED   2 IMPL_H1
M  END
> <IC50(uM)>
0.764

> <Outcome>
1.0

> <BindingDB ID>
50555410

> <BindingDB MonomerID>
50211700

> <BindingDB Ligand Name>
CHEMBL3898445

> <Curation/DataSource>
ChEMBL

> <Article DOI>
10.1016/j.bmc.2017.01.009

> <PMID>
28118956

> <Patent Number>
?

> <Authors>
Inaoka, DK; Iida, M; Hashimoto, S; Tabuchi, T; Kuranaga, T; Balogun, EO; Honma, T; Tanaka, A; Harada, S; Nara, T; Kita, K; Inoue, M

> <Link to Ligand in BindingDB>
http://www.bindingdb.org/bind/chemsearch/marvin/MolStructure.jsp?monomerid=50211700

> <Link to Ligand-Target Pair in BindingDB>
http://www.bindingdb.org/jsp/dbsearch/PrimarySearch_ki.jsp?energyterm=kJ/mole&tag=r21&monomerid=50211700&enzyme=Dihydroorotate+dehydrogenase&column=ki&startPg=0&Increment=50&submit=Search

> <PubChem CID>
134133701

> <PubChem SID>
375983043

$$$$

  Mrv2115 07222212352D          

 24 25  0  0  0  0            999 V2000
   -3.8137   -4.2356    0.0000 C   0  0  0  0  0  0  0  0  0  0  0  0
   -3.0993   -3.8231    0.0000 C   0  0  0  0  0  0  0  0  0  0  0  0
   -2.3848   -4.2356    0.0000 C   0  0  0  0  0  0  0  0  0  0  0  0
   -1.6703   -3.8231    0.0000 N   0  0  0  0  0  0  0  0  0  0  0  0
   -0.9559   -4.2356    0.0000 C   0  0  0  0  0  0  0  0  0  0  0  0
   -0.9559   -5.0606    0.0000 O   0  0  0  0  0  0  0  0  0  0  0  0
   -0.2414   -3.8231    0.0000 C   0  0  0  0  0  0  0  0  0  0  0  0
   -0.1552   -3.0026    0.0000 N   0  0  0  0  0  0  0  0  0  0  0  0
    0.6518   -2.8311    0.0000 C   0  0  0  0  0  0  0  0  0  0  0  0
    0.9874   -2.0774    0.0000 C   0  0  0  0  0  0  0  0  0  0  0  0
    1.0643   -3.5456    0.0000 C   0  0  0  0  0  0  0  0  0  0  0  0
    1.8848   -3.6318    0.0000 C   0  0  0  0  0  0  0  0  0  0  0  0
    2.3697   -2.9644    0.0000 C   0  0  0  0  0  0  0  0  0  0  0  0
    2.0342   -2.2107    0.0000 C   0  0  0  0  0  0  0  0  0  0  0  0
    2.5191   -1.5432    0.0000 C   0  0  0  0  0  0  0  0  0  0  0  0
    3.3396   -1.6295    0.0000 C   0  0  0  0  0  0  0  0  0  0  0  0
    3.8245   -0.9620    0.0000 C   0  0  0  0  0  0  0  0  0  0  0  0
    4.3094   -0.2946    0.0000 F   0  0  0  0  0  0  0  0  0  0  0  0
    4.4919   -1.4470    0.0000 F   0  0  0  0  0  0  0  0  0  0  0  0
    3.1570   -0.4771    0.0000 F   0  0  0  0  0  0  0  0  0  0  0  0
    3.6751   -2.3832    0.0000 C   0  0  0  0  0  0  0  0  0  0  0  0
    3.1902   -3.0506    0.0000 C   0  0  0  0  0  0  0  0  0  0  0  0
    0.5123   -4.1587    0.0000 C   0  0  0  0  0  0  0  0  0  0  0  0
    0.6838   -4.9656    0.0000 C   0  0  0  0  0  0  0  0  0  0  0  0
  1  2  1  0  0  0  0
  2  3  1  0  0  0  0
  3  4  1  0  0  0  0
  4  5  1  0  0  0  0
  5  6  2  0  0  0  0
  5  7  1  0  0  0  0
  7  8  4  0  0  0  0
  8  9  4  0  0  0  0
  9 10  1  0  0  0  0
  9 11  4  0  0  0  0
 11 12  1  0  0  0  0
 12 13  1  0  0  0  0
 13 14  4  0  0  0  0
 14 15  4  0  0  0  0
 15 16  4  0  0  0  0
 16 17  1  0  0  0  0
 17 18  1  0  0  0  0
 17 19  1  0  0  0  0
 17 20  1  0  0  0  0
 16 21  4  0  0  0  0
 21 22  4  0  0  0  0
 13 22  4  0  0  0  0
 11 23  4  0  0  0  0
  7 23  4  0  0  0  0
 23 24  1  0  0  0  0
M  STY  1   1 DAT
M  SAL   1  1   8
M  SDT   1 MRV_IMPLICIT_H                                        
M  SDD   1     0.5304   -0.4125    DR    ALL  0       0  
M  SED   1 IMPL_H1
M  END
> <IC50(uM)>
100.0

> <Outcome>
0.0

> <BindingDB ID>
51330086

> <BindingDB MonomerID>
50538334

> <BindingDB Ligand Name>
CHEMBL4646287

> <Curation/DataSource>
ChEMBL

> <Article DOI>
10.1021/acs.jmedchem.0c00311

> <PMID>
32248693

> <Patent Number>
?

> <Authors>
Kokkonda, S; Deng, X; White, KL; El Mazouni, F; White, J; Shackleford, DM; Katneni, K; Chiu, FCK; Barker, H; McLaren, J; Crighton, E; Chen, G; Angulo-Barturen, I; Jimenez-Diaz, MB; Ferrer, S; Huertas-Valentin, L; Martinez-Martinez, MS; Lafuente-Monasterio, MJ; Chittimalla, R; Shahi, SP; Wittlin, S; Waterson, D; Burrows, JN; Matthews, D; Tomchick, D; Rathod, PK; Palmer, MJ; Charman, SA; Phillips, MA

> <Link to Ligand in BindingDB>
http://www.bindingdb.org/bind/chemsearch/marvin/MolStructure.jsp?monomerid=50538334

> <Link to Ligand-Target Pair in BindingDB>
http://www.bindingdb.org/jsp/dbsearch/PrimarySearch_ki.jsp?energyterm=kJ/mole&tag=r21&monomerid=50538334&enzyme=Dihydroorotate+dehydrogenase&column=ki&startPg=0&Increment=50&submit=Search

> <PubChem CID>
156019236

> <PubChem SID>
442139897

$$$$

  Mrv2115 07222212352D          

 32 35  0  0  0  0            999 V2000
    1.4289    0.8250    0.0000 O   0  0  0  0  0  0  0  0  0  0  0  0
    2.1434    1.2375    0.0000 C   0  0  0  0  0  0  0  0  0  0  0  0
    2.1434    2.0625    0.0000 O   0  0  0  0  0  0  0  0  0  0  0  0
    1.4289    2.4750    0.0000 C   0  0  0  0  0  0  0  0  0  0  0  0
    1.4289    3.3000    0.0000 C   0  0  0  0  0  0  0  0  0  0  0  0
    0.7145    3.7125    0.0000 C   0  0  0  0  0  0  0  0  0  0  0  0
    0.0000    3.3000    0.0000 C   0  0  0  0  0  0  0  0  0  0  0  0
   -0.7145    3.7125    0.0000 C   0  0  0  0  0  0  0  0  0  0  0  0
   -0.7145    4.5375    0.0000 C   0  0  0  0  0  0  0  0  0  0  0  0
    0.0000    4.9500    0.0000 C   0  0  0  0  0  0  0  0  0  0  0  0
    0.7145    4.5375    0.0000 C   0  0  0  0  0  0  0  0  0  0  0  0
    2.8579    0.8250    0.0000 C   0  0  0  0  0  0  0  0  0  0  0  0
    3.5724    1.2375    0.0000 C   0  0  0  0  0  0  0  0  0  0  0  0
    4.2868    0.8250    0.0000 C   0  0  0  0  0  0  0  0  0  0  0  0
    4.2868   -0.0000    0.0000 C   0  0  0  0  0  0  0  0  0  0  0  0
    3.5724   -0.4125    0.0000 C   0  0  0  0  0  0  0  0  0  0  0  0
    2.8579   -0.0000    0.0000 C   0  0  0  0  0  0  0  0  0  0  0  0
    2.1434   -0.4125    0.0000 C   0  0  0  0  0  0  0  0  0  0  0  0
    1.4289   -0.0000    0.0000 N   0  0  0  0  0  0  0  0  0  0  0  0
    0.7145   -0.4125    0.0000 N   0  0  0  0  0  0  0  0  0  0  0  0
    0.7145   -1.2375    0.0000 C   0  0  0  0  0  0  0  0  0  0  0  0
    1.3819   -1.7224    0.0000 N   0  0  0  0  0  0  0  0  0  0  0  0
    1.1270   -2.5070    0.0000 C   0  0  0  0  0  0  0  0  0  0  0  0
    1.6119   -3.1745    0.0000 C   0  0  0  0  0  0  0  0  0  0  0  0
    2.4324   -3.0882    0.0000 C   0  0  0  0  0  0  0  0  0  0  0  0
    2.9173   -3.7557    0.0000 C   0  0  0  0  0  0  0  0  0  0  0  0
    2.5817   -4.5094    0.0000 C   0  0  0  0  0  0  0  0  0  0  0  0
    1.7613   -4.5956    0.0000 C   0  0  0  0  0  0  0  0  0  0  0  0
    1.2763   -3.9282    0.0000 C   0  0  0  0  0  0  0  0  0  0  0  0
    0.4559   -4.0144    0.0000 Cl  0  0  0  0  0  0  0  0  0  0  0  0
    0.3020   -2.5070    0.0000 C   0  0  0  0  0  0  0  0  0  0  0  0
    0.0470   -1.7224    0.0000 S   0  0  0  0  0  0  0  0  0  0  0  0
  1  2  2  0  0  0  0
  2  3  1  0  0  0  0
  3  4  1  0  0  0  0
  4  5  1  0  0  0  0
  5  6  1  0  0  0  0
  6  7  4  0  0  0  0
  7  8  4  0  0  0  0
  8  9  4  0  0  0  0
  9 10  4  0  0  0  0
 10 11  4  0  0  0  0
  6 11  4  0  0  0  0
  2 12  1  0  0  0  0
 12 13  4  0  0  0  0
 13 14  4  0  0  0  0
 14 15  4  0  0  0  0
 15 16  4  0  0  0  0
 16 17  4  0  0  0  0
 12 17  4  0  0  0  0
 17 18  1  0  0  0  0
 18 19  2  0  0  0  0
 19 20  1  0  0  0  0
 20 21  1  0  0  0  0
 21 22  4  0  0  0  0
 22 23  4  0  0  0  0
 23 24  1  0  0  0  0
 24 25  4  0  0  0  0
 25 26  4  0  0  0  0
 26 27  4  0  0  0  0
 27 28  4  0  0  0  0
 28 29  4  0  0  0  0
 24 29  4  0  0  0  0
 29 30  1  0  0  0  0
 23 31  4  0  0  0  0
 31 32  4  0  0  0  0
 21 32  4  0  0  0  0
M  END
> <IC50(uM)>
50.0

> <Outcome>
0.0

> <BindingDB ID>
1001146

> <BindingDB MonomerID>
482832

> <BindingDB Ligand Name>
US10919869, No.  A12

> <Curation/DataSource>
US Patent

> <Article DOI>
?

> <PMID>
?

> <Patent Number>
US10919869

> <Authors>
Li, H; Xu, Y; Wang, R; Zhao, Z; Song, W; Xu, L

> <Link to Ligand in BindingDB>
http://www.bindingdb.org/bind/chemsearch/marvin/MolStructure.jsp?monomerid=482832

> <Link to Ligand-Target Pair in BindingDB>
http://www.bindingdb.org/jsp/dbsearch/PrimarySearch_ki.jsp?energyterm=kJ/mole&tag=r21&monomerid=482832&enzyme=Dihydroorotate+dehydrogenase&column=ki&startPg=0&Increment=50&submit=Search

> <PubChem CID>
132157942

> <PubChem SID>
443551972

$$$$

  Mrv2115 07222212352D          

 21 22  0  0  0  0            999 V2000
    1.4289    9.6536    0.0000 C   0  0  0  0  0  0  0  0  0  0  0  0
    2.1434    9.2411    0.0000 N   0  0  0  0  0  0  0  0  0  0  0  0
    2.8579    9.6536    0.0000 C   0  0  0  0  0  0  0  0  0  0  0  0
    2.1434    8.4161    0.0000 C   0  0  0  0  0  0  0  0  0  0  0  0
    2.8579    8.0036    0.0000 C   0  0  0  0  0  0  0  0  0  0  0  0
    2.8579    7.1786    0.0000 C   0  0  0  0  0  0  0  0  0  0  0  0
    2.1434    6.7661    0.0000 C   0  0  0  0  0  0  0  0  0  0  0  0
    2.1434    5.9411    0.0000 N   0  0  0  0  0  0  0  0  0  0  0  0
    1.4289    5.5286    0.0000 C   0  0  0  0  0  0  0  0  0  0  0  0
    0.7145    5.9411    0.0000 S   0  0  0  0  0  0  0  0  0  0  0  0
    1.4289    4.7036    0.0000 C   0  0  0  0  0  0  0  0  0  0  0  0
    2.0964    4.2187    0.0000 C   0  0  0  0  0  0  0  0  0  0  0  0
    1.8414    3.4340    0.0000 N   0  0  0  0  0  0  0  0  0  0  0  0
    1.0164    3.4340    0.0000 O   0  0  0  0  0  0  0  0  0  0  0  0
    0.7615    4.2187    0.0000 C   0  0  0  0  0  0  0  0  0  0  0  0
   -0.0231    4.4736    0.0000 C   0  0  0  0  0  0  0  0  0  0  0  0
   -0.8077    4.7285    0.0000 C   0  0  0  0  0  0  0  0  0  0  0  0
    0.2318    5.2582    0.0000 C   0  0  0  0  0  0  0  0  0  0  0  0
   -0.2781    3.6890    0.0000 C   0  0  0  0  0  0  0  0  0  0  0  0
    1.4289    7.1786    0.0000 C   0  0  0  0  0  0  0  0  0  0  0  0
    1.4289    8.0036    0.0000 C   0  0  0  0  0  0  0  0  0  0  0  0
  1  2  1  0  0  0  0
  2  3  1  0  0  0  0
  2  4  1  0  0  0  0
  4  5  4  0  0  0  0
  5  6  4  0  0  0  0
  6  7  4  0  0  0  0
  7  8  1  0  0  0  0
  8  9  1  0  0  0  0
  9 10  2  0  0  0  0
  9 11  1  0  0  0  0
 11 12  4  0  0  0  0
 12 13  4  0  0  0  0
 13 14  4  0  0  0  0
 14 15  4  0  0  0  0
 11 15  4  0  0  0  0
 15 16  1  0  0  0  0
 16 17  1  0  0  0  0
 16 18  1  0  0  0  0
 16 19  1  0  0  0  0
  7 20  4  0  0  0  0
 20 21  4  0  0  0  0
  4 21  4  0  0  0  0
M  END
> <IC50(uM)>
50.0

> <Outcome>
0.0

> <BindingDB ID>
50123318

> <BindingDB MonomerID>
50071409

> <BindingDB Ligand Name>
5-tert-Butyl-isoxazole-4-carbothioic acid (4-dimethylamino-phenyl)-amide::CHEMBL305284

> <Curation/DataSource>
ChEMBL

> <Article DOI>
10.1016/s0960-894x(98)00365-5

> <PMID>
9873513

> <Patent Number>
?

> <Authors>
Albert, R; Knecht, H; Andersen, E; Hungerford, V; Schreier, MH; Papageorgiou, C

> <Link to Ligand in BindingDB>
http://www.bindingdb.org/bind/chemsearch/marvin/MolStructure.jsp?monomerid=50071409

> <Link to Ligand-Target Pair in BindingDB>
http://www.bindingdb.org/jsp/dbsearch/PrimarySearch_ki.jsp?energyterm=kJ/mole&tag=r21&monomerid=50071409&enzyme=Dihydroorotate+dehydrogenase&column=ki&startPg=0&Increment=50&submit=Search

> <PubChem CID>
44310382

> <PubChem SID>
103965163

$$$$

  Mrv2115 07222212352D          

 25 27  0  0  0  0            999 V2000
    0.7145   -3.7125    0.0000 C   0  0  0  0  0  0  0  0  0  0  0  0
    0.7145   -2.8875    0.0000 C   0  0  0  0  0  0  0  0  0  0  0  0
    1.4289   -2.4750    0.0000 C   0  0  0  0  0  0  0  0  0  0  0  0
    2.1434   -2.8875    0.0000 C   0  0  0  0  0  0  0  0  0  0  0  0
    1.4289   -1.6500    0.0000 C   0  0  0  0  0  0  0  0  0  0  0  0
    0.7145   -1.2375    0.0000 C   0  0  0  0  0  0  0  0  0  0  0  0
    0.7145   -0.4125    0.0000 C   0  0  0  0  0  0  0  0  0  0  0  0
    1.4289    0.0000    0.0000 C   0  0  0  0  0  0  0  0  0  0  0  0
    2.1434   -0.4125    0.0000 C   0  0  0  0  0  0  0  0  0  0  0  0
    2.8579    0.0000    0.0000 C   0  0  0  0  0  0  0  0  0  0  0  0
    2.8579    0.8250    0.0000 C   0  0  0  0  0  0  0  0  0  0  0  0
    3.5724    1.2375    0.0000 O   0  0  0  0  0  0  0  0  0  0  0  0
    2.1434    1.2375    0.0000 O   0  0  0  0  0  0  0  0  0  0  0  0
    3.5724   -0.4125    0.0000 C   0  0  0  0  0  0  0  0  0  0  0  0
    4.2868   -0.0000    0.0000 O   0  0  0  0  0  0  0  0  0  0  0  0
    3.5724   -1.2375    0.0000 C   0  0  0  0  0  0  0  0  0  0  0  0
    4.2868   -1.6500    0.0000 C   0  0  0  0  0  0  0  0  0  0  0  0
    5.0013   -1.2375    0.0000 C   0  0  0  0  0  0  0  0  0  0  0  0
    5.7158   -1.6500    0.0000 C   0  0  0  0  0  0  0  0  0  0  0  0
    5.7158   -2.4750    0.0000 C   0  0  0  0  0  0  0  0  0  0  0  0
    6.4302   -2.8875    0.0000 Cl  0  0  0  0  0  0  0  0  0  0  0  0
    5.0013   -2.8875    0.0000 C   0  0  0  0  0  0  0  0  0  0  0  0
    4.2868   -2.4750    0.0000 C   0  0  0  0  0  0  0  0  0  0  0  0
    2.8579   -1.6500    0.0000 N   0  0  0  0  0  0  0  0  0  0  0  0
    2.1434   -1.2375    0.0000 C   0  0  0  0  0  0  0  0  0  0  0  0
  1  2  1  0  0  0  0
  2  3  1  0  0  0  0
  3  4  1  0  0  0  0
  3  5  1  0  0  0  0
  5  6  4  0  0  0  0
  6  7  4  0  0  0  0
  7  8  4  0  0  0  0
  8  9  4  0  0  0  0
  9 10  4  0  0  0  0
 10 11  1  0  0  0  0
 11 12  2  0  0  0  0
 11 13  1  0  0  0  0
 10 14  4  0  0  0  0
 14 15  1  0  0  0  0
 14 16  4  0  0  0  0
 16 17  1  0  0  0  0
 17 18  4  0  0  0  0
 18 19  4  0  0  0  0
 19 20  4  0  0  0  0
 20 21  1  0  0  0  0
 20 22  4  0  0  0  0
 22 23  4  0  0  0  0
 17 23  4  0  0  0  0
 16 24  4  0  0  0  0
 24 25  4  0  0  0  0
  5 25  4  0  0  0  0
  9 25  4  0  0  0  0
M  END
> <IC50(uM)>
301.0

> <Outcome>
0.0

> <BindingDB ID>
50841884

> <BindingDB MonomerID>
50201916

> <BindingDB Ligand Name>
8-sec-butyl-2-(4-chlorophenyl)-3-hydroxyquinoline-4-carboxylicacid::CHEMBL218727

> <Curation/DataSource>
ChEMBL

> <Article DOI>
10.1021/jm0602256

> <PMID>
17201408

> <Patent Number>
?

> <Authors>
Kaila, N; Janz, K; DeBernardo, S; Bedard, PW; Camphausen, RT; Tam, S; Tsao, DH; Keith, JC; Nickerson-Nutter, C; Shilling, A; Young-Sciame, R; Wang, Q

> <Link to Ligand in BindingDB>
http://www.bindingdb.org/bind/chemsearch/marvin/MolStructure.jsp?monomerid=50201916

> <Link to Ligand-Target Pair in BindingDB>
http://www.bindingdb.org/jsp/dbsearch/PrimarySearch_ki.jsp?energyterm=kJ/mole&tag=r21&monomerid=50201916&enzyme=Dihydroorotate+dehydrogenase&column=ki&startPg=0&Increment=50&submit=Search

> <PubChem CID>
16099968

> <PubChem SID>
104081567

$$$$

  Mrv2115 07222212352D          

 22 24  0  0  0  0            999 V2000
    0.0000   -1.6500    0.0000 C   0  0  0  0  0  0  0  0  0  0  0  0
    0.7145   -1.2375    0.0000 C   0  0  0  0  0  0  0  0  0  0  0  0
    0.7145   -0.4125    0.0000 C   0  0  0  0  0  0  0  0  0  0  0  0
    1.4289    0.0000    0.0000 C   0  0  0  0  0  0  0  0  0  0  0  0
    2.1434   -0.4125    0.0000 C   0  0  0  0  0  0  0  0  0  0  0  0
    2.8579    0.0000    0.0000 C   0  0  0  0  0  0  0  0  0  0  0  0
    2.8579    0.8250    0.0000 C   0  0  0  0  0  0  0  0  0  0  0  0
    3.5724    1.2375    0.0000 O   0  0  0  0  0  0  0  0  0  0  0  0
    2.1434    1.2375    0.0000 O   0  0  0  0  0  0  0  0  0  0  0  0
    3.5724   -0.4125    0.0000 C   0  0  0  0  0  0  0  0  0  0  0  0
    4.2868   -0.0000    0.0000 O   0  0  0  0  0  0  0  0  0  0  0  0
    3.5724   -1.2375    0.0000 C   0  0  0  0  0  0  0  0  0  0  0  0
    4.2868   -1.6500    0.0000 C   0  0  0  0  0  0  0  0  0  0  0  0
    5.0013   -1.2375    0.0000 C   0  0  0  0  0  0  0  0  0  0  0  0
    5.7158   -1.6500    0.0000 C   0  0  0  0  0  0  0  0  0  0  0  0
    5.7158   -2.4750    0.0000 C   0  0  0  0  0  0  0  0  0  0  0  0
    6.4302   -2.8875    0.0000 Cl  0  0  0  0  0  0  0  0  0  0  0  0
    5.0013   -2.8875    0.0000 C   0  0  0  0  0  0  0  0  0  0  0  0
    4.2868   -2.4750    0.0000 C   0  0  0  0  0  0  0  0  0  0  0  0
    2.8579   -1.6500    0.0000 N   0  0  0  0  0  0  0  0  0  0  0  0
    2.1434   -1.2375    0.0000 C   0  0  0  0  0  0  0  0  0  0  0  0
    1.4289   -1.6500    0.0000 C   0  0  0  0  0  0  0  0  0  0  0  0
  1  2  1  0  0  0  0
  2  3  4  0  0  0  0
  3  4  4  0  0  0  0
  4  5  4  0  0  0  0
  5  6  4  0  0  0  0
  6  7  1  0  0  0  0
  7  8  2  0  0  0  0
  7  9  1  0  0  0  0
  6 10  4  0  0  0  0
 10 11  1  0  0  0  0
 10 12  4  0  0  0  0
 12 13  1  0  0  0  0
 13 14  4  0  0  0  0
 14 15  4  0  0  0  0
 15 16  4  0  0  0  0
 16 17  1  0  0  0  0
 16 18  4  0  0  0  0
 18 19  4  0  0  0  0
 13 19  4  0  0  0  0
 12 20  4  0  0  0  0
 20 21  4  0  0  0  0
  5 21  4  0  0  0  0
 21 22  4  0  0  0  0
  2 22  4  0  0  0  0
M  END
> <IC50(uM)>
17.0

> <Outcome>
0.0

> <BindingDB ID>
50841923

> <BindingDB MonomerID>
50201936

> <BindingDB Ligand Name>
2-(4-chlorophenyl)-3-hydroxy-7-methylquinoline-4-carboxylicacid::CHEMBL217959

> <Curation/DataSource>
ChEMBL

> <Article DOI>
10.1021/jm0602256

> <PMID>
17201408

> <Patent Number>
?

> <Authors>
Kaila, N; Janz, K; DeBernardo, S; Bedard, PW; Camphausen, RT; Tam, S; Tsao, DH; Keith, JC; Nickerson-Nutter, C; Shilling, A; Young-Sciame, R; Wang, Q

> <Link to Ligand in BindingDB>
http://www.bindingdb.org/bind/chemsearch/marvin/MolStructure.jsp?monomerid=50201936

> <Link to Ligand-Target Pair in BindingDB>
http://www.bindingdb.org/jsp/dbsearch/PrimarySearch_ki.jsp?energyterm=kJ/mole&tag=r21&monomerid=50201936&enzyme=Dihydroorotate+dehydrogenase&column=ki&startPg=0&Increment=50&submit=Search

> <PubChem CID>
16099917

> <PubChem SID>
104081587

$$$$

  Mrv2115 07222212352D          

 33 35  0  0  0  0            999 V2000
    2.1434   -3.7125    0.0000 C   0  0  0  0  0  0  0  0  0  0  0  0
    1.4289   -4.1250    0.0000 C   0  0  0  0  0  0  0  0  0  0  0  0
    1.4289   -4.9500    0.0000 N   0  0  0  0  0  0  0  0  0  0  0  0
    2.0964   -5.4349    0.0000 C   0  0  0  0  0  0  0  0  0  0  0  0
    2.8810   -5.1800    0.0000 C   0  0  0  0  0  0  0  0  0  0  0  0
    3.4941   -5.7320    0.0000 O   0  0  0  0  0  0  0  0  0  0  0  0
    1.8414   -6.2195    0.0000 N   0  0  0  0  0  0  0  0  0  0  0  0
    1.0164   -6.2195    0.0000 N   0  0  0  0  0  0  0  0  0  0  0  0
    0.5315   -6.8870    0.0000 C   0  0  0  0  0  0  0  0  0  0  0  0
    0.8671   -7.6407    0.0000 C   0  0  0  0  0  0  0  0  0  0  0  0
    0.3822   -8.3081    0.0000 C   0  0  0  0  0  0  0  0  0  0  0  0
   -0.4383   -8.2219    0.0000 C   0  0  0  0  0  0  0  0  0  0  0  0
   -0.9232   -8.8893    0.0000 C   0  0  0  0  0  0  0  0  0  0  0  0
   -1.7437   -8.8031    0.0000 O   0  0  0  0  0  0  0  0  0  0  0  0
   -0.5877   -9.6430    0.0000 N   0  0  0  0  0  0  0  0  0  0  0  0
   -1.0726  -10.3104    0.0000 C   0  0  0  0  0  0  0  0  0  0  0  0
   -0.7371  -11.0641    0.0000 C   0  0  0  0  0  0  0  0  0  0  0  0
    0.0834  -11.1503    0.0000 F   0  0  0  0  0  0  0  0  0  0  0  0
   -1.2220  -11.7315    0.0000 C   0  0  0  0  0  0  0  0  0  0  0  0
   -2.0425  -11.6453    0.0000 C   0  0  0  0  0  0  0  0  0  0  0  0
   -2.3780  -10.8916    0.0000 C   0  0  0  0  0  0  0  0  0  0  0  0
   -1.8931  -10.2242    0.0000 C   0  0  0  0  0  0  0  0  0  0  0  0
   -2.2287   -9.4705    0.0000 Cl  0  0  0  0  0  0  0  0  0  0  0  0
   -0.7739   -7.4682    0.0000 C   0  0  0  0  0  0  0  0  0  0  0  0
   -1.5944   -7.3820    0.0000 O   0  0  0  0  0  0  0  0  0  0  0  0
   -1.9299   -6.6283    0.0000 C   0  0  0  0  0  0  0  0  0  0  0  0
   -1.4450   -5.9608    0.0000 C   0  0  0  0  0  0  0  0  0  0  0  0
   -2.7504   -6.5420    0.0000 C   0  0  0  0  0  0  0  0  0  0  0  0
   -3.2353   -7.2095    0.0000 F   0  0  0  0  0  0  0  0  0  0  0  0
   -3.0860   -5.7884    0.0000 F   0  0  0  0  0  0  0  0  0  0  0  0
   -0.2890   -6.8007    0.0000 C   0  0  0  0  0  0  0  0  0  0  0  0
    0.7615   -5.4349    0.0000 C   0  0  0  0  0  0  0  0  0  0  0  0
   -0.0231   -5.1800    0.0000 O   0  0  0  0  0  0  0  0  0  0  0  0
  1  2  1  0  0  0  0
  2  3  1  0  0  0  0
  3  4  4  0  0  0  0
  4  5  1  0  0  0  0
  5  6  1  0  0  0  0
  4  7  4  0  0  0  0
  7  8  4  0  0  0  0
  8  9  1  0  0  0  0
  9 10  4  0  0  0  0
 10 11  4  0  0  0  0
 11 12  4  0  0  0  0
 12 13  1  0  0  0  0
 13 14  2  0  0  0  0
 13 15  1  0  0  0  0
 15 16  1  0  0  0  0
 16 17  4  0  0  0  0
 17 18  1  0  0  0  0
 17 19  4  0  0  0  0
 19 20  4  0  0  0  0
 20 21  4  0  0  0  0
 21 22  4  0  0  0  0
 16 22  4  0  0  0  0
 22 23  1  0  0  0  0
 12 24  4  0  0  0  0
 24 25  1  0  0  0  0
 25 26  1  0  0  0  0
 26 27  1  0  0  0  0
 26 28  1  0  0  0  0
 28 29  1  0  0  0  0
 28 30  1  0  0  0  0
 24 31  4  0  0  0  0
  9 31  4  0  0  0  0
  8 32  4  0  0  0  0
  3 32  4  0  0  0  0
 32 33  2  0  0  0  0
M  END
> <IC50(uM)>
0.042

> <Outcome>
1.0

> <BindingDB ID>
1098796; 972642

> <BindingDB MonomerID>
470520

> <BindingDB Ligand Name>
N-(2-chloro-6-fluorophenyl)-2-{[1,1-difluoropropan-2-yl]oxy}-4-[4-ethyl-3-(hydroxymethyl)-5-oxo-4,5-dihydro-1H-1,2,4-triazol-1-yl]benzamide (Racemic)::US10815215, Example 180::US11130745, Example 180; N-(2-chloro-6-fluorophenyl)-2-{[1,1-difluoropropan-2-yl]oxy}-4-[4-ethyl-3-(hydroxymethyl)-5-oxo-4,5-dihydro-1H-1,2,4-triazol-1-yl]benzamide (Racemic)::US10815215, Example 180

> <Curation/DataSource>
US Patent

> <Article DOI>
?

> <PMID>
?

> <Patent Number>
US11130745; US10815215

> <Authors>
Gradl, SN; Nguyen, D; Eis, K; Gunther, J; Stellfeld, T; Janzer, A; Christian, S; Muller, T; Sheikh, SE; Sykes, DB; Ferrara, SJ; Krober, M; Merz, C; Niehues, M; Schafer, M; Zimmermann, K; Nising, CF; Gradl, SN; Nguyen, D; Eis, K; Gunther, J; Stellfeld, T; Janzer, A; Christian, S; Muller, T; Sheikh, SE; Zhou, HJ; Zhao, C; Sykes, DB; Ferrara, SJ; Liu, K; Krober, M; Merz, C; Niehues, M; Schafer, M; Zimmermann, K; Nising, CF

> <Link to Ligand in BindingDB>
http://www.bindingdb.org/bind/chemsearch/marvin/MolStructure.jsp?monomerid=470520

> <Link to Ligand-Target Pair in BindingDB>
http://www.bindingdb.org/jsp/dbsearch/PrimarySearch_ki.jsp?energyterm=kJ/mole&tag=r21&monomerid=470520&enzyme=Dihydroorotate+dehydrogenase&column=ki&startPg=0&Increment=50&submit=Search

> <PubChem CID>
134470133

> <PubChem SID>
441609696

$$$$

  Mrv2115 07222212352D          

 33 36  0  0  0  0            999 V2000
    2.1434   -2.8875    0.0000 C   0  0  0  0  0  0  0  0  0  0  0  0
    1.4289   -2.4750    0.0000 C   0  0  0  0  0  0  0  0  0  0  0  0
    0.7145   -2.8875    0.0000 C   0  0  0  0  0  0  0  0  0  0  0  0
    1.4289   -1.6500    0.0000 C   0  0  0  0  0  0  0  0  0  0  0  0
    0.7145   -1.2375    0.0000 C   0  0  0  0  0  0  0  0  0  0  0  0
    0.7145   -0.4125    0.0000 N   0  0  0  0  0  0  0  0  0  0  0  0
    0.0000    0.0000    0.0000 C   0  0  0  0  0  0  0  0  0  0  0  0
   -0.7145   -0.4125    0.0000 C   0  0  0  0  0  0  0  0  0  0  0  0
   -0.7145   -1.2375    0.0000 F   0  0  0  0  0  0  0  0  0  0  0  0
   -1.4289    0.0000    0.0000 C   0  0  0  0  0  0  0  0  0  0  0  0
   -1.4289    0.8250    0.0000 C   0  0  0  0  0  0  0  0  0  0  0  0
   -0.7145    1.2375    0.0000 C   0  0  0  0  0  0  0  0  0  0  0  0
    0.0000    0.8250    0.0000 C   0  0  0  0  0  0  0  0  0  0  0  0
    0.7145    1.2375    0.0000 Cl  0  0  0  0  0  0  0  0  0  0  0  0
    1.4289    0.0000    0.0000 C   0  0  0  0  0  0  0  0  0  0  0  0
    1.4289    0.8250    0.0000 O   0  0  0  0  0  0  0  0  0  0  0  0
    2.1434   -0.4125    0.0000 C   0  0  0  0  0  0  0  0  0  0  0  0
    2.8579    0.0000    0.0000 C   0  0  0  0  0  0  0  0  0  0  0  0
    3.5724   -0.4125    0.0000 C   0  0  0  0  0  0  0  0  0  0  0  0
    4.2868   -0.0000    0.0000 F   0  0  0  0  0  0  0  0  0  0  0  0
    3.5724   -1.2375    0.0000 C   0  0  0  0  0  0  0  0  0  0  0  0
    4.2868   -1.6500    0.0000 N   0  0  0  0  0  0  0  0  0  0  0  0
    5.0405   -1.3144    0.0000 N   0  0  0  0  0  0  0  0  0  0  0  0
    5.5925   -1.9275    0.0000 C   0  0  0  0  0  0  0  0  0  0  0  0
    6.4130   -1.8413    0.0000 C   0  0  0  0  0  0  0  0  0  0  0  0
    6.7486   -1.0876    0.0000 O   0  0  0  0  0  0  0  0  0  0  0  0
    5.1800   -2.6420    0.0000 N   0  0  0  0  0  0  0  0  0  0  0  0
    5.5156   -3.3957    0.0000 C   0  0  0  0  0  0  0  0  0  0  0  0
    5.0307   -4.0631    0.0000 C   0  0  0  0  0  0  0  0  0  0  0  0
    4.3731   -2.4705    0.0000 C   0  0  0  0  0  0  0  0  0  0  0  0
    3.7600   -3.0225    0.0000 O   0  0  0  0  0  0  0  0  0  0  0  0
    2.8579   -1.6500    0.0000 C   0  0  0  0  0  0  0  0  0  0  0  0
    2.1434   -1.2375    0.0000 C   0  0  0  0  0  0  0  0  0  0  0  0
  1  2  2  0  0  0  0
  2  3  1  0  0  0  0
  2  4  1  0  0  0  0
  4  5  4  0  0  0  0
  5  6  4  0  0  0  0
  6  7  1  0  0  0  0
  7  8  4  0  0  0  0
  8  9  1  0  0  0  0
  8 10  4  0  0  0  0
 10 11  4  0  0  0  0
 11 12  4  0  0  0  0
 12 13  4  0  0  0  0
  7 13  4  0  0  0  0
 13 14  1  0  0  0  0
  6 15  4  0  0  0  0
 15 16  2  0  0  0  0
 15 17  4  0  0  0  0
 17 18  4  0  0  0  0
 18 19  4  0  0  0  0
 19 20  1  0  0  0  0
 19 21  4  0  0  0  0
 21 22  1  0  0  0  0
 22 23  4  0  0  0  0
 23 24  4  0  0  0  0
 24 25  1  0  0  0  0
 25 26  1  0  0  0  0
 24 27  4  0  0  0  0
 27 28  1  0  0  0  0
 28 29  1  0  0  0  0
 27 30  4  0  0  0  0
 22 30  4  0  0  0  0
 30 31  2  0  0  0  0
 21 32  4  0  0  0  0
 32 33  4  0  0  0  0
  4 33  4  0  0  0  0
 17 33  4  0  0  0  0
M  END
> <IC50(uM)>
2.65E-4

> <Outcome>
1.0

> <BindingDB ID>
51360201

> <BindingDB MonomerID>
50549951

> <BindingDB Ligand Name>
CHEMBL4745588

> <Curation/DataSource>
ChEMBL

> <Article DOI>
?

> <PMID>
33603957

> <Patent Number>
?

> <Authors>
Sabnis, RW

> <Link to Ligand in BindingDB>
http://www.bindingdb.org/bind/chemsearch/marvin/MolStructure.jsp?monomerid=50549951

> <Link to Ligand-Target Pair in BindingDB>
http://www.bindingdb.org/jsp/dbsearch/PrimarySearch_ki.jsp?energyterm=kJ/mole&tag=r21&monomerid=50549951&enzyme=Dihydroorotate+dehydrogenase&column=ki&startPg=0&Increment=50&submit=Search

> <PubChem CID>
155209539

> <PubChem SID>
461680291

$$$$

  Mrv2115 07222212352D          

 28 32  0  0  0  0            999 V2000
   -5.9581    3.8288    0.0000 C   0  0  0  0  0  0  0  0  0  0  0  0
   -5.1376    3.9151    0.0000 C   0  0  0  0  0  0  0  0  0  0  0  0
   -4.8020    4.6687    0.0000 C   0  0  0  0  0  0  0  0  0  0  0  0
   -3.9816    4.7550    0.0000 C   0  0  0  0  0  0  0  0  0  0  0  0
   -3.4966    4.0875    0.0000 C   0  0  0  0  0  0  0  0  0  0  0  0
   -3.8322    3.3339    0.0000 C   0  0  0  0  0  0  0  0  0  0  0  0
   -3.3473    2.6664    0.0000 N   0  0  0  0  0  0  0  0  0  0  0  0
   -3.6022    1.8818    0.0000 N   0  0  0  0  0  0  0  0  0  0  0  0
   -2.9348    1.3969    0.0000 C   0  0  0  0  0  0  0  0  0  0  0  0
   -2.2673    1.8818    0.0000 C   0  0  0  0  0  0  0  0  0  0  0  0
   -2.5223    2.6664    0.0000 C   0  0  0  0  0  0  0  0  0  0  0  0
   -1.9702    3.2795    0.0000 C   0  0  0  0  0  0  0  0  0  0  0  0
   -1.1633    3.1080    0.0000 C   0  0  0  0  0  0  0  0  0  0  0  0
   -0.9083    2.3234    0.0000 C   0  0  0  0  0  0  0  0  0  0  0  0
   -1.4604    1.7103    0.0000 C   0  0  0  0  0  0  0  0  0  0  0  0
   -1.2054    0.9256    0.0000 N   0  0  0  0  0  0  0  0  0  0  0  0
   -0.3984    0.7541    0.0000 C   0  0  0  0  0  0  0  0  0  0  0  0
    0.1536    1.3672    0.0000 O   0  0  0  0  0  0  0  0  0  0  0  0
   -0.1435   -0.0305    0.0000 C   0  0  0  0  0  0  0  0  0  0  0  0
   -0.6284   -0.6979    0.0000 N   0  0  0  0  0  0  0  0  0  0  0  0
   -0.1435   -1.3654    0.0000 O   0  0  0  0  0  0  0  0  0  0  0  0
    0.6411   -1.1104    0.0000 C   0  0  0  0  0  0  0  0  0  0  0  0
    0.6411   -0.2854    0.0000 C   0  0  0  0  0  0  0  0  0  0  0  0
    1.3556    0.1271    0.0000 C   0  0  0  0  0  0  0  0  0  0  0  0
    2.0701   -0.2854    0.0000 C   0  0  0  0  0  0  0  0  0  0  0  0
    2.0701   -1.1104    0.0000 C   0  0  0  0  0  0  0  0  0  0  0  0
    1.3556   -1.5229    0.0000 C   0  0  0  0  0  0  0  0  0  0  0  0
   -4.6527    3.2476    0.0000 C   0  0  0  0  0  0  0  0  0  0  0  0
  1  2  1  0  0  0  0
  2  3  4  0  0  0  0
  3  4  4  0  0  0  0
  4  5  4  0  0  0  0
  5  6  4  0  0  0  0
  6  7  1  0  0  0  0
  7  8  4  0  0  0  0
  8  9  4  0  0  0  0
  9 10  4  0  0  0  0
 10 11  4  0  0  0  0
  7 11  4  0  0  0  0
 11 12  1  0  0  0  0
 12 13  1  0  0  0  0
 13 14  1  0  0  0  0
 14 15  1  0  0  0  0
 10 15  1  0  0  0  0
 15 16  1  0  0  0  0
 16 17  1  0  0  0  0
 17 18  2  0  0  0  0
 17 19  1  0  0  0  0
 19 20  4  0  0  0  0
 20 21  4  0  0  0  0
 21 22  4  0  0  0  0
 22 23  4  0  0  0  0
 19 23  4  0  0  0  0
 23 24  1  0  0  0  0
 24 25  1  0  0  0  0
 25 26  1  0  0  0  0
 26 27  1  0  0  0  0
 22 27  1  0  0  0  0
  6 28  4  0  0  0  0
  2 28  4  0  0  0  0
M  END
> <IC50(uM)>
0.010499999999999999

> <Outcome>
1.0

> <BindingDB ID>
993098; 51334958

> <BindingDB MonomerID>
477600

> <BindingDB Ligand Name>
N-[1-(3-methylphenyl)-4,5,6,7-tetrahydro-1H-indazol-4-yl]-4,5,6,7-tetrahydro-1,2-benzoxazole-3-carboxamide::US10889564, Example 30

> <Curation/DataSource>
US Patent; ChEMBL

> <Article DOI>
?; 10.1021/acs.jmedchem.9b01658

> <PMID>
?; 32212728

> <Patent Number>
US10889564; ?

> <Authors>
Lain, S; Drummond, C; Leeuwen, IV; Haraldsson, M; Johansson, L; Sandberg, L; Yngve, U; Popova, G; Ladds, MJGW; Johansson, L; Saleh, A; Larsson, J; Sandberg, L; Sahlberg, SH; Qian, W; Gullberg, H; Garg, N; Gustavsson, AL; Haraldsson, M; Lane, D; Yngve, U; Lain, S

> <Link to Ligand in BindingDB>
http://www.bindingdb.org/bind/chemsearch/marvin/MolStructure.jsp?monomerid=477600

> <Link to Ligand-Target Pair in BindingDB>
http://www.bindingdb.org/jsp/dbsearch/PrimarySearch_ki.jsp?energyterm=kJ/mole&tag=r21&monomerid=477600&enzyme=Dihydroorotate+dehydrogenase&column=ki&startPg=0&Increment=50&submit=Search

> <PubChem CID>
129104768

> <PubChem SID>
442137217

$$$$

  Mrv2115 07222212352D          

 33 35  0  0  0  0            999 V2000
    0.7145   -3.7125    0.0000 C   0  0  0  0  0  0  0  0  0  0  0  0
    1.4289   -4.1250    0.0000 C   0  0  0  0  0  0  0  0  0  0  0  0
    2.1434   -3.7125    0.0000 C   0  0  0  0  0  0  0  0  0  0  0  0
    2.8579   -4.1250    0.0000 C   0  0  0  0  0  0  0  0  0  0  0  0
    2.8579   -4.9500    0.0000 C   0  0  0  0  0  0  0  0  0  0  0  0
    3.5724   -3.7125    0.0000 O   0  0  0  0  0  0  0  0  0  0  0  0
    3.5724   -2.8875    0.0000 C   0  0  0  0  0  0  0  0  0  0  0  0
    2.8579   -2.4750    0.0000 C   0  0  0  0  0  0  0  0  0  0  0  0
    2.8579   -1.6500    0.0000 C   0  0  0  0  0  0  0  0  0  0  0  0
    2.1434   -1.2375    0.0000 N   0  0  0  0  0  0  0  0  0  0  0  0
    1.3897   -1.5731    0.0000 N   0  0  0  0  0  0  0  0  0  0  0  0
    0.8377   -0.9600    0.0000 C   0  0  0  0  0  0  0  0  0  0  0  0
    0.0172   -1.0462    0.0000 C   0  0  0  0  0  0  0  0  0  0  0  0
   -0.4677   -0.3788    0.0000 C   0  0  0  0  0  0  0  0  0  0  0  0
    1.2502   -0.2455    0.0000 N   0  0  0  0  0  0  0  0  0  0  0  0
    0.9146    0.5082    0.0000 C   0  0  0  0  0  0  0  0  0  0  0  0
    2.0572   -0.4170    0.0000 C   0  0  0  0  0  0  0  0  0  0  0  0
    2.6703    0.1350    0.0000 O   0  0  0  0  0  0  0  0  0  0  0  0
    3.5724   -1.2375    0.0000 C   0  0  0  0  0  0  0  0  0  0  0  0
    3.5724   -0.4125    0.0000 F   0  0  0  0  0  0  0  0  0  0  0  0
    4.2868   -1.6500    0.0000 C   0  0  0  0  0  0  0  0  0  0  0  0
    4.2868   -2.4750    0.0000 C   0  0  0  0  0  0  0  0  0  0  0  0
    5.0013   -2.8875    0.0000 C   0  0  0  0  0  0  0  0  0  0  0  0
    5.7158   -2.4750    0.0000 O   0  0  0  0  0  0  0  0  0  0  0  0
    5.0013   -3.7125    0.0000 N   0  0  0  0  0  0  0  0  0  0  0  0
    5.7158   -4.1250    0.0000 C   0  0  0  0  0  0  0  0  0  0  0  0
    6.4302   -3.7125    0.0000 C   0  0  0  0  0  0  0  0  0  0  0  0
    7.1447   -4.1250    0.0000 C   0  0  0  0  0  0  0  0  0  0  0  0
    7.1447   -4.9500    0.0000 C   0  0  0  0  0  0  0  0  0  0  0  0
    6.4302   -5.3625    0.0000 C   0  0  0  0  0  0  0  0  0  0  0  0
    5.7158   -4.9500    0.0000 C   0  0  0  0  0  0  0  0  0  0  0  0
    5.0013   -5.3625    0.0000 C   0  0  0  0  0  0  0  0  0  0  0  0
    4.2868   -4.9500    0.0000 C   0  0  0  0  0  0  0  0  0  0  0  0
  1  2  1  0  0  0  0
  2  3  1  0  0  0  0
  3  4  1  0  0  0  0
  4  5  1  0  0  0  0
  4  6  1  0  0  0  0
  6  7  1  0  0  0  0
  7  8  4  0  0  0  0
  8  9  4  0  0  0  0
  9 10  1  0  0  0  0
 10 11  4  0  0  0  0
 11 12  4  0  0  0  0
 12 13  1  0  0  0  0
 13 14  1  0  0  0  0
 12 15  4  0  0  0  0
 15 16  1  0  0  0  0
 15 17  4  0  0  0  0
 10 17  4  0  0  0  0
 17 18  2  0  0  0  0
  9 19  4  0  0  0  0
 19 20  1  0  0  0  0
 19 21  4  0  0  0  0
 21 22  4  0  0  0  0
  7 22  4  0  0  0  0
 22 23  1  0  0  0  0
 23 24  2  0  0  0  0
 23 25  1  0  0  0  0
 25 26  1  0  0  0  0
 26 27  4  0  0  0  0
 27 28  4  0  0  0  0
 28 29  4  0  0  0  0
 29 30  4  0  0  0  0
 30 31  4  0  0  0  0
 26 31  4  0  0  0  0
 31 32  1  0  0  0  0
 32 33  1  0  0  0  0
M  END
> <IC50(uM)>
0.004849999999999999

> <Outcome>
1.0

> <BindingDB ID>
972495; 1098649; 1098648; 972494

> <BindingDB MonomerID>
470377

> <BindingDB Ligand Name>
4-(3-ethyl-4-methyl-5-oxo-4,5-dihydro-1H-1,2,4-triazol-1-yl)-N-(2-ethylphenyl)-5-fluoro-2-[(2S)-pentan-2-yloxy]benzamide::US10815215, Example 36; 4-(3-ethyl-4-methyl-5-oxo-4,5-dihydro-1H-1,2,4-triazol-1-yl)-N-(2-ethylphenyl)-5-fluoro-2-[(2S)-pentan-2-yloxy]benzamide::US10815215, Example 36::US11130745, Example 36

> <Curation/DataSource>
US Patent

> <Article DOI>
?

> <PMID>
?

> <Patent Number>
US10815215; US11130745

> <Authors>
Gradl, SN; Nguyen, D; Eis, K; Gunther, J; Stellfeld, T; Janzer, A; Christian, S; Muller, T; Sheikh, SE; Zhou, HJ; Zhao, C; Sykes, DB; Ferrara, SJ; Liu, K; Krober, M; Merz, C; Niehues, M; Schafer, M; Zimmermann, K; Nising, CF; Gradl, SN; Nguyen, D; Eis, K; Gunther, J; Stellfeld, T; Janzer, A; Christian, S; Muller, T; Sheikh, SE; Sykes, DB; Ferrara, SJ; Krober, M; Merz, C; Niehues, M; Schafer, M; Zimmermann, K; Nising, CF

> <Link to Ligand in BindingDB>
http://www.bindingdb.org/bind/chemsearch/marvin/MolStructure.jsp?monomerid=470377

> <Link to Ligand-Target Pair in BindingDB>
http://www.bindingdb.org/jsp/dbsearch/PrimarySearch_ki.jsp?energyterm=kJ/mole&tag=r21&monomerid=470377&enzyme=Dihydroorotate+dehydrogenase&column=ki&startPg=0&Increment=50&submit=Search

> <PubChem CID>
134470329

> <PubChem SID>
441609554

$$$$

  Mrv2115 07222212352D          

 22 24  0  0  0  0            999 V2000
    2.1434   -2.8875    0.0000 O   0  0  0  0  0  0  0  0  0  0  0  0
    1.4289   -2.4750    0.0000 C   0  0  0  0  0  0  0  0  0  0  0  0
    0.7145   -2.8875    0.0000 O   0  0  0  0  0  0  0  0  0  0  0  0
    1.4289   -1.6500    0.0000 C   0  0  0  0  0  0  0  0  0  0  0  0
    0.7145   -1.2375    0.0000 C   0  0  0  0  0  0  0  0  0  0  0  0
    0.0000   -1.6500    0.0000 O   0  0  0  0  0  0  0  0  0  0  0  0
    0.7145   -0.4125    0.0000 C   0  0  0  0  0  0  0  0  0  0  0  0
    0.0000    0.0000    0.0000 C   0  0  0  0  0  0  0  0  0  0  0  0
   -0.7145   -0.4125    0.0000 C   0  0  0  0  0  0  0  0  0  0  0  0
   -1.4289    0.0000    0.0000 C   0  0  0  0  0  0  0  0  0  0  0  0
   -1.4289    0.8250    0.0000 C   0  0  0  0  0  0  0  0  0  0  0  0
   -2.1434    1.2375    0.0000 Cl  0  0  0  0  0  0  0  0  0  0  0  0
   -0.7145    1.2375    0.0000 C   0  0  0  0  0  0  0  0  0  0  0  0
    0.0000    0.8250    0.0000 C   0  0  0  0  0  0  0  0  0  0  0  0
    1.4289    0.0000    0.0000 N   0  0  0  0  0  0  0  0  0  0  0  0
    2.1434   -0.4125    0.0000 C   0  0  0  0  0  0  0  0  0  0  0  0
    2.8579    0.0000    0.0000 C   0  0  0  0  0  0  0  0  0  0  0  0
    2.8579    0.8250    0.0000 Br  0  0  0  0  0  0  0  0  0  0  0  0
    3.5724   -0.4125    0.0000 C   0  0  0  0  0  0  0  0  0  0  0  0
    3.5724   -1.2375    0.0000 C   0  0  0  0  0  0  0  0  0  0  0  0
    2.8579   -1.6500    0.0000 C   0  0  0  0  0  0  0  0  0  0  0  0
    2.1434   -1.2375    0.0000 C   0  0  0  0  0  0  0  0  0  0  0  0
  1  2  2  0  0  0  0
  2  3  1  0  0  0  0
  2  4  1  0  0  0  0
  4  5  4  0  0  0  0
  5  6  1  0  0  0  0
  5  7  4  0  0  0  0
  7  8  1  0  0  0  0
  8  9  4  0  0  0  0
  9 10  4  0  0  0  0
 10 11  4  0  0  0  0
 11 12  1  0  0  0  0
 11 13  4  0  0  0  0
 13 14  4  0  0  0  0
  8 14  4  0  0  0  0
  7 15  4  0  0  0  0
 15 16  4  0  0  0  0
 16 17  4  0  0  0  0
 17 18  1  0  0  0  0
 17 19  4  0  0  0  0
 19 20  4  0  0  0  0
 20 21  4  0  0  0  0
 21 22  4  0  0  0  0
  4 22  4  0  0  0  0
 16 22  4  0  0  0  0
M  END
> <IC50(uM)>
132.0

> <Outcome>
0.0

> <BindingDB ID>
50841893

> <BindingDB MonomerID>
50201926

> <BindingDB Ligand Name>
8-bromo-2-(4-chlorophenyl)-3-hydroxyquinoline-4-carboxylicacid::CHEMBL384039

> <Curation/DataSource>
ChEMBL

> <Article DOI>
10.1021/jm0602256

> <PMID>
17201408

> <Patent Number>
?

> <Authors>
Kaila, N; Janz, K; DeBernardo, S; Bedard, PW; Camphausen, RT; Tam, S; Tsao, DH; Keith, JC; Nickerson-Nutter, C; Shilling, A; Young-Sciame, R; Wang, Q

> <Link to Ligand in BindingDB>
http://www.bindingdb.org/bind/chemsearch/marvin/MolStructure.jsp?monomerid=50201926

> <Link to Ligand-Target Pair in BindingDB>
http://www.bindingdb.org/jsp/dbsearch/PrimarySearch_ki.jsp?energyterm=kJ/mole&tag=r21&monomerid=50201926&enzyme=Dihydroorotate+dehydrogenase&column=ki&startPg=0&Increment=50&submit=Search

> <PubChem CID>
16100006

> <PubChem SID>
104081577

$$$$

  Mrv2115 07222212352D          

 35 38  0  0  0  0            999 V2000
    0.2747   -5.7410    0.0000 C   0  0  0  0  0  0  0  0  0  0  0  0
   -0.5100   -5.4861    0.0000 C   0  0  0  0  0  0  0  0  0  0  0  0
   -0.7649   -4.7015    0.0000 N   0  0  0  0  0  0  0  0  0  0  0  0
   -1.5899   -4.7015    0.0000 N   0  0  0  0  0  0  0  0  0  0  0  0
   -2.0748   -4.0340    0.0000 C   0  0  0  0  0  0  0  0  0  0  0  0
   -2.8953   -4.1203    0.0000 C   0  0  0  0  0  0  0  0  0  0  0  0
   -3.3802   -3.4528    0.0000 C   0  0  0  0  0  0  0  0  0  0  0  0
   -4.2007   -3.5391    0.0000 O   0  0  0  0  0  0  0  0  0  0  0  0
   -4.5363   -4.2927    0.0000 C   0  0  0  0  0  0  0  0  0  0  0  0
   -4.0513   -4.9602    0.0000 C   0  0  0  0  0  0  0  0  0  0  0  0
   -5.3567   -4.3790    0.0000 C   0  0  0  0  0  0  0  0  0  0  0  0
   -5.4430   -3.5585    0.0000 F   0  0  0  0  0  0  0  0  0  0  0  0
   -5.2705   -5.1995    0.0000 F   0  0  0  0  0  0  0  0  0  0  0  0
   -6.1772   -4.4652    0.0000 F   0  0  0  0  0  0  0  0  0  0  0  0
   -3.0447   -2.6992    0.0000 C   0  0  0  0  0  0  0  0  0  0  0  0
   -3.5296   -2.0317    0.0000 C   0  0  0  0  0  0  0  0  0  0  0  0
   -4.3501   -2.1180    0.0000 O   0  0  0  0  0  0  0  0  0  0  0  0
   -3.1940   -1.2780    0.0000 N   0  0  0  0  0  0  0  0  0  0  0  0
   -3.6789   -0.6106    0.0000 C   0  0  0  0  0  0  0  0  0  0  0  0
   -4.4994   -0.6968    0.0000 C   0  0  0  0  0  0  0  0  0  0  0  0
   -4.8350   -1.4505    0.0000 F   0  0  0  0  0  0  0  0  0  0  0  0
   -4.9844   -0.0294    0.0000 C   0  0  0  0  0  0  0  0  0  0  0  0
   -4.6488    0.7243    0.0000 C   0  0  0  0  0  0  0  0  0  0  0  0
   -3.8283    0.8105    0.0000 C   0  0  0  0  0  0  0  0  0  0  0  0
   -3.3434    0.1431    0.0000 C   0  0  0  0  0  0  0  0  0  0  0  0
   -2.5229    0.2293    0.0000 F   0  0  0  0  0  0  0  0  0  0  0  0
   -2.2242   -2.6129    0.0000 C   0  0  0  0  0  0  0  0  0  0  0  0
   -1.7393   -3.2804    0.0000 C   0  0  0  0  0  0  0  0  0  0  0  0
   -0.9188   -3.1941    0.0000 F   0  0  0  0  0  0  0  0  0  0  0  0
   -1.8448   -5.4861    0.0000 C   0  0  0  0  0  0  0  0  0  0  0  0
   -2.6295   -5.7410    0.0000 O   0  0  0  0  0  0  0  0  0  0  0  0
   -1.1774   -5.9710    0.0000 N   0  0  0  0  0  0  0  0  0  0  0  0
   -1.1774   -6.7960    0.0000 C   0  0  0  0  0  0  0  0  0  0  0  0
   -0.7649   -7.5105    0.0000 C   0  0  0  0  0  0  0  0  0  0  0  0
   -1.5899   -7.5105    0.0000 C   0  0  0  0  0  0  0  0  0  0  0  0
  1  2  1  0  0  0  0
  2  3  4  0  0  0  0
  3  4  4  0  0  0  0
  4  5  1  0  0  0  0
  5  6  4  0  0  0  0
  6  7  4  0  0  0  0
  7  8  1  0  0  0  0
  8  9  1  0  0  0  0
  9 10  1  0  0  0  0
  9 11  1  0  0  0  0
 11 12  1  0  0  0  0
 11 13  1  0  0  0  0
 11 14  1  0  0  0  0
  7 15  4  0  0  0  0
 15 16  1  0  0  0  0
 16 17  2  0  0  0  0
 16 18  1  0  0  0  0
 18 19  1  0  0  0  0
 19 20  4  0  0  0  0
 20 21  1  0  0  0  0
 20 22  4  0  0  0  0
 22 23  4  0  0  0  0
 23 24  4  0  0  0  0
 24 25  4  0  0  0  0
 19 25  4  0  0  0  0
 25 26  1  0  0  0  0
 15 27  4  0  0  0  0
 27 28  4  0  0  0  0
  5 28  4  0  0  0  0
 28 29  1  0  0  0  0
  4 30  4  0  0  0  0
 30 31  2  0  0  0  0
 30 32  4  0  0  0  0
  2 32  4  0  0  0  0
 32 33  1  0  0  0  0
 33 34  1  0  0  0  0
 34 35  1  0  0  0  0
 33 35  1  0  0  0  0
M  END
> <IC50(uM)>
0.24666666666666665

> <Outcome>
1.0

> <BindingDB ID>
972522; 1098676; 1098678

> <BindingDB MonomerID>
470397

> <BindingDB Ligand Name>
4-(4-cyclopropyl-3-methyl-5-oxo-4,5-dihydro-1H-1,2,4-triazol-1-yl)-N-(2,6-difluorophenyl)-5-fluoro-2-{[(2S)-1,1,1-trifluoropropan-2-yl]oxy}benzamide::US10815215, Example 56; 4-(4-cyclopropyl-3-methyl-5-oxo-4,5-dihydro-1H-1,2,4-triazol-1-yl)-N-(2,6-difluorophenyl)-5-fluoro-2-{[(2S)-1,1,1-trifluoropropan-2-yl]oxy}benzamide::US10815215, Example 56::US11130745, Example 58

> <Curation/DataSource>
US Patent

> <Article DOI>
?

> <PMID>
?

> <Patent Number>
US10815215; US11130745

> <Authors>
Gradl, SN; Nguyen, D; Eis, K; Gunther, J; Stellfeld, T; Janzer, A; Christian, S; Muller, T; Sheikh, SE; Zhou, HJ; Zhao, C; Sykes, DB; Ferrara, SJ; Liu, K; Krober, M; Merz, C; Niehues, M; Schafer, M; Zimmermann, K; Nising, CF; Gradl, SN; Nguyen, D; Eis, K; Gunther, J; Stellfeld, T; Janzer, A; Christian, S; Muller, T; Sheikh, SE; Sykes, DB; Ferrara, SJ; Krober, M; Merz, C; Niehues, M; Schafer, M; Zimmermann, K; Nising, CF

> <Link to Ligand in BindingDB>
http://www.bindingdb.org/bind/chemsearch/marvin/MolStructure.jsp?monomerid=470397

> <Link to Ligand-Target Pair in BindingDB>
http://www.bindingdb.org/jsp/dbsearch/PrimarySearch_ki.jsp?energyterm=kJ/mole&tag=r21&monomerid=470397&enzyme=Dihydroorotate+dehydrogenase&column=ki&startPg=0&Increment=50&submit=Search

> <PubChem CID>
134469776

> <PubChem SID>
441609574

$$$$

  Mrv2115 07222212352D          

 21 22  0  0  0  0            999 V2000
    2.1434    1.2375    0.0000 O   0  0  0  0  0  0  0  0  0  0  0  0
    2.8579    0.8250    0.0000 C   0  0  0  0  0  0  0  0  0  0  0  0
    2.8579    0.0000    0.0000 C   0  0  0  0  0  0  0  0  0  0  0  0
    3.5724   -0.4125    0.0000 C   0  0  0  0  0  0  0  0  0  0  0  0
    3.5724   -1.2375    0.0000 C   0  0  0  0  0  0  0  0  0  0  0  0
    4.2868   -1.6500    0.0000 C   0  0  0  0  0  0  0  0  0  0  0  0
    4.2868   -2.4750    0.0000 C   0  0  0  0  0  0  0  0  0  0  0  0
    3.5724   -2.8875    0.0000 C   0  0  0  0  0  0  0  0  0  0  0  0
    3.5724   -3.7125    0.0000 O   0  0  0  0  0  0  0  0  0  0  0  0
    2.8579   -2.4750    0.0000 C   0  0  0  0  0  0  0  0  0  0  0  0
    2.1434   -2.8875    0.0000 C   0  0  0  0  0  0  0  0  0  0  0  0
    1.4289   -2.4750    0.0000 O   0  0  0  0  0  0  0  0  0  0  0  0
    2.1434   -3.7125    0.0000 O   0  0  0  0  0  0  0  0  0  0  0  0
    2.8579   -1.6500    0.0000 C   0  0  0  0  0  0  0  0  0  0  0  0
    3.5724    1.2375    0.0000 C   0  0  0  0  0  0  0  0  0  0  0  0
    3.5724    2.0625    0.0000 C   0  0  0  0  0  0  0  0  0  0  0  0
    4.2868    2.4750    0.0000 C   0  0  0  0  0  0  0  0  0  0  0  0
    5.0013    2.0625    0.0000 C   0  0  0  0  0  0  0  0  0  0  0  0
    5.7158    2.4750    0.0000 Cl  0  0  0  0  0  0  0  0  0  0  0  0
    5.0013    1.2375    0.0000 C   0  0  0  0  0  0  0  0  0  0  0  0
    4.2868    0.8250    0.0000 C   0  0  0  0  0  0  0  0  0  0  0  0
  1  2  2  0  0  0  0
  2  3  1  0  0  0  0
  3  4  2  0  0  0  0
  4  5  1  0  0  0  0
  5  6  4  0  0  0  0
  6  7  4  0  0  0  0
  7  8  4  0  0  0  0
  8  9  1  0  0  0  0
  8 10  4  0  0  0  0
 10 11  1  0  0  0  0
 11 12  2  0  0  0  0
 11 13  1  0  0  0  0
 10 14  4  0  0  0  0
  5 14  4  0  0  0  0
  2 15  1  0  0  0  0
 15 16  4  0  0  0  0
 16 17  4  0  0  0  0
 17 18  4  0  0  0  0
 18 19  1  0  0  0  0
 18 20  4  0  0  0  0
 20 21  4  0  0  0  0
 15 21  4  0  0  0  0
M  END
> <IC50(uM)>
6.06

> <Outcome>
0.0

> <BindingDB ID>
50971934

> <BindingDB MonomerID>
50398638

> <BindingDB Ligand Name>
CHEMBL2178112

> <Curation/DataSource>
ChEMBL

> <Article DOI>
10.1021/jm300630p

> <PMID>
22984987

> <Patent Number>
?

> <Authors>
Diao, Y; Lu, W; Jin, H; Zhu, J; Han, L; Xu, M; Gao, R; Shen, X; Zhao, Z; Liu, X; Xu, Y; Huang, J; Li, H

> <Link to Ligand in BindingDB>
http://www.bindingdb.org/bind/chemsearch/marvin/MolStructure.jsp?monomerid=50398638

> <Link to Ligand-Target Pair in BindingDB>
http://www.bindingdb.org/jsp/dbsearch/PrimarySearch_ki.jsp?energyterm=kJ/mole&tag=r21&monomerid=50398638&enzyme=Dihydroorotate+dehydrogenase&column=ki&startPg=0&Increment=50&submit=Search

> <PubChem CID>
10494611

> <PubChem SID>
163347662

$$$$

  Mrv2115 07222212352D          

 36 40  0  0  0  0            999 V2000
   -5.1659   -2.8414    0.0000 C   0  0  0  0  0  0  0  0  0  0  0  0
   -5.5784   -2.1269    0.0000 C   0  0  0  0  0  0  0  0  0  0  0  0
   -6.4034   -2.1269    0.0000 C   0  0  0  0  0  0  0  0  0  0  0  0
   -6.8159   -1.4124    0.0000 C   0  0  0  0  0  0  0  0  0  0  0  0
   -6.4034   -0.6979    0.0000 N   0  0  0  0  0  0  0  0  0  0  0  0
   -5.5784   -0.6979    0.0000 C   0  0  0  0  0  0  0  0  0  0  0  0
   -5.1659   -1.4124    0.0000 C   0  0  0  0  0  0  0  0  0  0  0  0
   -4.3409   -1.4124    0.0000 N   0  0  0  0  0  0  0  0  0  0  0  0
   -3.9284   -0.6979    0.0000 C   0  0  0  0  0  0  0  0  0  0  0  0
   -4.3409    0.0165    0.0000 O   0  0  0  0  0  0  0  0  0  0  0  0
   -3.1034   -0.6979    0.0000 C   0  0  0  0  0  0  0  0  0  0  0  0
   -2.6909    0.0165    0.0000 C   0  0  0  0  0  0  0  0  0  0  0  0
   -1.8659    0.0165    0.0000 C   0  0  0  0  0  0  0  0  0  0  0  0
   -1.4534    0.7310    0.0000 F   0  0  0  0  0  0  0  0  0  0  0  0
   -1.4534   -0.6979    0.0000 C   0  0  0  0  0  0  0  0  0  0  0  0
   -0.6284   -0.6979    0.0000 N   0  0  0  0  0  0  0  0  0  0  0  0
   -0.1435   -1.3654    0.0000 N   0  0  0  0  0  0  0  0  0  0  0  0
    0.6411   -1.1104    0.0000 C   0  0  0  0  0  0  0  0  0  0  0  0
    0.6411   -0.2854    0.0000 N   0  0  0  0  0  0  0  0  0  0  0  0
   -0.1435   -0.0305    0.0000 C   0  0  0  0  0  0  0  0  0  0  0  0
   -0.3984    0.7541    0.0000 O   0  0  0  0  0  0  0  0  0  0  0  0
    1.3556    0.1271    0.0000 C   0  0  0  0  0  0  0  0  0  0  0  0
    2.0701   -0.2854    0.0000 C   0  0  0  0  0  0  0  0  0  0  0  0
    2.0701   -1.1104    0.0000 C   0  0  0  0  0  0  0  0  0  0  0  0
    1.3556   -1.5229    0.0000 C   0  0  0  0  0  0  0  0  0  0  0  0
   -1.8659   -1.4124    0.0000 C   0  0  0  0  0  0  0  0  0  0  0  0
   -2.6909   -1.4124    0.0000 C   0  0  0  0  0  0  0  0  0  0  0  0
   -3.1034   -2.1269    0.0000 O   0  0  0  0  0  0  0  0  0  0  0  0
   -2.6909   -2.8414    0.0000 C   0  0  0  0  0  0  0  0  0  0  0  0
   -1.8659   -2.8414    0.0000 C   0  0  0  0  0  0  0  0  0  0  0  0
   -3.1034   -3.5558    0.0000 C   0  0  0  0  0  0  0  0  0  0  0  0
   -2.6909   -4.2703    0.0000 C   0  0  0  0  0  0  0  0  0  0  0  0
   -3.1034   -4.9848    0.0000 C   0  0  0  0  0  0  0  0  0  0  0  0
   -3.9284   -4.9848    0.0000 C   0  0  0  0  0  0  0  0  0  0  0  0
   -4.3409   -4.2703    0.0000 C   0  0  0  0  0  0  0  0  0  0  0  0
   -3.9284   -3.5558    0.0000 C   0  0  0  0  0  0  0  0  0  0  0  0
  1  2  1  0  0  0  0
  2  3  4  0  0  0  0
  3  4  4  0  0  0  0
  4  5  4  0  0  0  0
  5  6  4  0  0  0  0
  6  7  4  0  0  0  0
  2  7  4  0  0  0  0
  7  8  1  0  0  0  0
  8  9  1  0  0  0  0
  9 10  2  0  0  0  0
  9 11  1  0  0  0  0
 11 12  4  0  0  0  0
 12 13  4  0  0  0  0
 13 14  1  0  0  0  0
 13 15  4  0  0  0  0
 15 16  1  0  0  0  0
 16 17  4  0  0  0  0
 17 18  4  0  0  0  0
 18 19  4  0  0  0  0
 19 20  4  0  0  0  0
 16 20  4  0  0  0  0
 20 21  2  0  0  0  0
 19 22  1  0  0  0  0
 22 23  1  0  0  0  0
 23 24  1  0  0  0  0
 24 25  1  0  0  0  0
 18 25  1  0  0  0  0
 15 26  4  0  0  0  0
 26 27  4  0  0  0  0
 11 27  4  0  0  0  0
 27 28  1  0  0  0  0
 28 29  1  0  0  0  0
 29 30  1  0  0  0  0
 29 31  1  0  0  0  0
 31 32  1  0  0  0  0
 32 33  1  0  0  0  0
 33 34  1  0  0  0  0
 34 35  1  0  0  0  0
 35 36  1  0  0  0  0
 31 36  1  0  0  0  0
M  END
> <IC50(uM)>
0.005

> <Outcome>
1.0

> <BindingDB ID>
1020559

> <BindingDB MonomerID>
490498

> <BindingDB Ligand Name>
2-[(1S)-1-cyclohexylethoxy]-5-fluoro-N-(4-methylpyridin-3-yl)-4-(3-oxo-5,6,7,8-tetrahydro-[1,2,4]triazolo[4,3-a]pyridin-2(3H)-yl)benzamide::US10968216, Example 166

> <Curation/DataSource>
US Patent

> <Article DOI>
?

> <PMID>
?

> <Patent Number>
US10968216

> <Authors>
Gradl, SN; Nguyen, D; Eis, K; Gunther, J; Stellfeld, T; Janzer, A; Christian, S; Mueller, T; Sheikh, SE; Zhou, HJ; Zhao, C; Sykes, DB; Ferrara, SJ; Liu, K; Herbert, SA; Merz, C; Niehues, M; Nising, CF; Schafer, M; Zimmermann, K; Knablein, J; Thede, K; Faupel, T

> <Link to Ligand in BindingDB>
http://www.bindingdb.org/bind/chemsearch/marvin/MolStructure.jsp?monomerid=490498

> <Link to Ligand-Target Pair in BindingDB>
http://www.bindingdb.org/jsp/dbsearch/PrimarySearch_ki.jsp?energyterm=kJ/mole&tag=r21&monomerid=490498&enzyme=Dihydroorotate+dehydrogenase&column=ki&startPg=0&Increment=50&submit=Search

> <PubChem CID>
153291228

> <PubChem SID>
447117225

$$$$

  Mrv2115 07222212352D          

 21 23  0  0  0  0            999 V2000
    7.4472    4.3948    0.0000 C   0  0  0  0  0  0  0  0  0  0  0  0
    6.6626    4.1399    0.0000 C   0  0  0  0  0  0  0  0  0  0  0  0
    6.4911    3.3329    0.0000 O   0  0  0  0  0  0  0  0  0  0  0  0
    5.7064    3.0780    0.0000 C   0  0  0  0  0  0  0  0  0  0  0  0
    5.0933    3.6300    0.0000 O   0  0  0  0  0  0  0  0  0  0  0  0
    5.5349    2.2710    0.0000 C   0  0  0  0  0  0  0  0  0  0  0  0
    6.0869    1.6579    0.0000 C   0  0  0  0  0  0  0  0  0  0  0  0
    6.9074    1.7441    0.0000 O   0  0  0  0  0  0  0  0  0  0  0  0
    5.6744    0.9434    0.0000 C   0  0  0  0  0  0  0  0  0  0  0  0
    4.8675    1.1150    0.0000 S   0  0  0  0  0  0  0  0  0  0  0  0
    4.7812    1.9354    0.0000 C   0  0  0  0  0  0  0  0  0  0  0  0
    4.0668    2.3479    0.0000 N   0  0  0  0  0  0  0  0  0  0  0  0
    3.3523    1.9354    0.0000 C   0  0  0  0  0  0  0  0  0  0  0  0
    3.3523    1.1104    0.0000 C   0  0  0  0  0  0  0  0  0  0  0  0
    2.6378    0.6979    0.0000 C   0  0  0  0  0  0  0  0  0  0  0  0
    1.9233    1.1104    0.0000 C   0  0  0  0  0  0  0  0  0  0  0  0
    1.9233    1.9354    0.0000 C   0  0  0  0  0  0  0  0  0  0  0  0
    2.6378    2.3479    0.0000 C   0  0  0  0  0  0  0  0  0  0  0  0
    1.1387    2.1904    0.0000 C   0  0  0  0  0  0  0  0  0  0  0  0
    0.6538    1.5229    0.0000 C   0  0  0  0  0  0  0  0  0  0  0  0
    1.1387    0.8555    0.0000 C   0  0  0  0  0  0  0  0  0  0  0  0
  1  2  1  0  0  0  0
  2  3  1  0  0  0  0
  3  4  1  0  0  0  0
  4  5  2  0  0  0  0
  4  6  1  0  0  0  0
  6  7  4  0  0  0  0
  7  8  1  0  0  0  0
  7  9  4  0  0  0  0
  9 10  4  0  0  0  0
 10 11  4  0  0  0  0
  6 11  4  0  0  0  0
 11 12  1  0  0  0  0
 12 13  1  0  0  0  0
 13 14  4  0  0  0  0
 14 15  4  0  0  0  0
 15 16  4  0  0  0  0
 16 17  4  0  0  0  0
 17 18  4  0  0  0  0
 13 18  4  0  0  0  0
 17 19  1  0  0  0  0
 19 20  1  0  0  0  0
 20 21  1  0  0  0  0
 16 21  1  0  0  0  0
M  END
> <IC50(uM)>
50.0

> <Outcome>
0.0

> <BindingDB ID>
51079169

> <BindingDB MonomerID>
50441277

> <BindingDB Ligand Name>
CHEMBL2431516

> <Curation/DataSource>
ChEMBL

> <Article DOI>
10.1021/jm400938g

> <PMID>
24073986

> <Patent Number>
?

> <Authors>
Xu, M; Zhu, J; Diao, Y; Zhou, H; Ren, X; Sun, D; Huang, J; Han, D; Zhao, Z; Zhu, L; Xu, Y; Li, H

> <Link to Ligand in BindingDB>
http://www.bindingdb.org/bind/chemsearch/marvin/MolStructure.jsp?monomerid=50441277

> <Link to Ligand-Target Pair in BindingDB>
http://www.bindingdb.org/jsp/dbsearch/PrimarySearch_ki.jsp?energyterm=kJ/mole&tag=r21&monomerid=50441277&enzyme=Dihydroorotate+dehydrogenase&column=ki&startPg=0&Increment=50&submit=Search

> <PubChem CID>
91898838

> <PubChem SID>
175453594

$$$$

  Mrv2115 07222212352D          

 26 29  0  0  0  0            999 V2000
    5.4957    4.8229    0.0000 C   0  0  0  0  0  0  0  0  0  0  0  0
    6.2102    4.4104    0.0000 C   0  0  0  0  0  0  0  0  0  0  0  0
    6.9246    4.8229    0.0000 C   0  0  0  0  0  0  0  0  0  0  0  0
    7.6391    4.4104    0.0000 C   0  0  0  0  0  0  0  0  0  0  0  0
    7.6391    3.5854    0.0000 C   0  0  0  0  0  0  0  0  0  0  0  0
    6.9246    3.1729    0.0000 C   0  0  0  0  0  0  0  0  0  0  0  0
    6.2102    3.5854    0.0000 C   0  0  0  0  0  0  0  0  0  0  0  0
    5.4957    3.1729    0.0000 C   0  0  0  0  0  0  0  0  0  0  0  0
    5.4957    2.3479    0.0000 C   0  0  0  0  0  0  0  0  0  0  0  0
    4.7812    1.9354    0.0000 C   0  0  0  0  0  0  0  0  0  0  0  0
    4.0668    2.3479    0.0000 C   0  0  0  0  0  0  0  0  0  0  0  0
    3.3523    1.9354    0.0000 C   0  0  0  0  0  0  0  0  0  0  0  0
    3.3523    1.1104    0.0000 C   0  0  0  0  0  0  0  0  0  0  0  0
    2.6378    0.6979    0.0000 C   0  0  0  0  0  0  0  0  0  0  0  0
    2.6378   -0.1271    0.0000 C   0  0  0  0  0  0  0  0  0  0  0  0
    1.9233   -0.5396    0.0000 O   0  0  0  0  0  0  0  0  0  0  0  0
    3.3523   -0.5396    0.0000 O   0  0  0  0  0  0  0  0  0  0  0  0
    1.9233    1.1104    0.0000 C   0  0  0  0  0  0  0  0  0  0  0  0
    1.1387    0.8555    0.0000 N   0  0  0  0  0  0  0  0  0  0  0  0
    0.6538    1.5229    0.0000 N   0  0  0  0  0  0  0  0  0  0  0  0
   -0.1712    1.5229    0.0000 C   0  0  0  0  0  0  0  0  0  0  0  0
    1.1387    2.1904    0.0000 N   0  0  0  0  0  0  0  0  0  0  0  0
    1.9233    1.9354    0.0000 C   0  0  0  0  0  0  0  0  0  0  0  0
    2.6378    2.3479    0.0000 C   0  0  0  0  0  0  0  0  0  0  0  0
    4.0668    3.1729    0.0000 C   0  0  0  0  0  0  0  0  0  0  0  0
    4.7812    3.5854    0.0000 C   0  0  0  0  0  0  0  0  0  0  0  0
  1  2  1  0  0  0  0
  2  3  4  0  0  0  0
  3  4  4  0  0  0  0
  4  5  4  0  0  0  0
  5  6  4  0  0  0  0
  6  7  4  0  0  0  0
  2  7  4  0  0  0  0
  7  8  1  0  0  0  0
  8  9  4  0  0  0  0
  9 10  4  0  0  0  0
 10 11  4  0  0  0  0
 11 12  1  0  0  0  0
 12 13  4  0  0  0  0
 13 14  4  0  0  0  0
 14 15  1  0  0  0  0
 15 16  2  0  0  0  0
 15 17  1  0  0  0  0
 14 18  4  0  0  0  0
 18 19  4  0  0  0  0
 19 20  4  0  0  0  0
 20 21  1  0  0  0  0
 20 22  4  0  0  0  0
 22 23  4  0  0  0  0
 18 23  4  0  0  0  0
 23 24  4  0  0  0  0
 12 24  4  0  0  0  0
 11 25  4  0  0  0  0
 25 26  4  0  0  0  0
  8 26  4  0  0  0  0
M  END
> <IC50(uM)>
0.1

> <Outcome>
1.0

> <BindingDB ID>
1100160

> <BindingDB MonomerID>
520619

> <BindingDB Ligand Name>
2-methyl-6-(2'-methyl-[1,1'-biphenyl]-4-yl)-2H-benzo[d][1,2,3]triazole-4- carboxylic acid;::US11147801, Compound 8

> <Curation/DataSource>
US Patent

> <Article DOI>
?

> <PMID>
?

> <Patent Number>
US11147801

> <Authors>
Nellore, K; Hosahalli, S

> <Link to Ligand in BindingDB>
http://www.bindingdb.org/bind/chemsearch/marvin/MolStructure.jsp?monomerid=520619

> <Link to Ligand-Target Pair in BindingDB>
http://www.bindingdb.org/jsp/dbsearch/PrimarySearch_ki.jsp?energyterm=kJ/mole&tag=r21&monomerid=520619&enzyme=Dihydroorotate+dehydrogenase&column=ki&startPg=0&Increment=50&submit=Search

> <PubChem CID>
?

> <PubChem SID>
?

$$$$

  Mrv2115 07222212352D          

 23 24  0  0  0  0            999 V2000
   -0.1067   -0.0616    0.0000 C   0  0  0  0  0  0  0  0  0  0  0  0
    0.6078   -0.4741    0.0000 C   0  0  0  0  0  0  0  0  0  0  0  0
    1.3222   -0.0616    0.0000 O   0  0  0  0  0  0  0  0  0  0  0  0
    2.0367   -0.4741    0.0000 C   0  0  0  0  0  0  0  0  0  0  0  0
    2.7512   -0.0616    0.0000 O   0  0  0  0  0  0  0  0  0  0  0  0
    2.0367   -1.2991    0.0000 C   0  0  0  0  0  0  0  0  0  0  0  0
    1.3693   -1.7840    0.0000 C   0  0  0  0  0  0  0  0  0  0  0  0
    0.5846   -1.5291    0.0000 O   0  0  0  0  0  0  0  0  0  0  0  0
    1.6242   -2.5687    0.0000 C   0  0  0  0  0  0  0  0  0  0  0  0
    2.4492   -2.5687    0.0000 S   0  0  0  0  0  0  0  0  0  0  0  0
    2.7041   -1.7840    0.0000 C   0  0  0  0  0  0  0  0  0  0  0  0
    3.4888   -1.5291    0.0000 N   0  0  0  0  0  0  0  0  0  0  0  0
    4.1019   -2.0811    0.0000 C   0  0  0  0  0  0  0  0  0  0  0  0
    4.8865   -1.8262    0.0000 C   0  0  0  0  0  0  0  0  0  0  0  0
    5.4996   -2.3782    0.0000 C   0  0  0  0  0  0  0  0  0  0  0  0
    5.3281   -3.1852    0.0000 C   0  0  0  0  0  0  0  0  0  0  0  0
    5.9411   -3.7372    0.0000 Cl  0  0  0  0  0  0  0  0  0  0  0  0
    4.5434   -3.4401    0.0000 C   0  0  0  0  0  0  0  0  0  0  0  0
    4.3719   -4.2471    0.0000 C   0  0  0  0  0  0  0  0  0  0  0  0
    4.2004   -5.0541    0.0000 F   0  0  0  0  0  0  0  0  0  0  0  0
    3.5649   -4.0756    0.0000 F   0  0  0  0  0  0  0  0  0  0  0  0
    5.1789   -4.4186    0.0000 F   0  0  0  0  0  0  0  0  0  0  0  0
    3.9303   -2.8881    0.0000 C   0  0  0  0  0  0  0  0  0  0  0  0
  1  2  1  0  0  0  0
  2  3  1  0  0  0  0
  3  4  1  0  0  0  0
  4  5  2  0  0  0  0
  4  6  1  0  0  0  0
  6  7  4  0  0  0  0
  7  8  1  0  0  0  0
  7  9  4  0  0  0  0
  9 10  4  0  0  0  0
 10 11  4  0  0  0  0
  6 11  4  0  0  0  0
 11 12  1  0  0  0  0
 12 13  1  0  0  0  0
 13 14  4  0  0  0  0
 14 15  4  0  0  0  0
 15 16  4  0  0  0  0
 16 17  1  0  0  0  0
 16 18  4  0  0  0  0
 18 19  1  0  0  0  0
 19 20  1  0  0  0  0
 19 21  1  0  0  0  0
 19 22  1  0  0  0  0
 18 23  4  0  0  0  0
 13 23  4  0  0  0  0
M  END
> <IC50(uM)>
50.0

> <Outcome>
0.0

> <BindingDB ID>
51079179

> <BindingDB MonomerID>
50441287

> <BindingDB Ligand Name>
CHEMBL2431506

> <Curation/DataSource>
ChEMBL

> <Article DOI>
10.1021/jm400938g

> <PMID>
24073986

> <Patent Number>
?

> <Authors>
Xu, M; Zhu, J; Diao, Y; Zhou, H; Ren, X; Sun, D; Huang, J; Han, D; Zhao, Z; Zhu, L; Xu, Y; Li, H

> <Link to Ligand in BindingDB>
http://www.bindingdb.org/bind/chemsearch/marvin/MolStructure.jsp?monomerid=50441287

> <Link to Ligand-Target Pair in BindingDB>
http://www.bindingdb.org/jsp/dbsearch/PrimarySearch_ki.jsp?energyterm=kJ/mole&tag=r21&monomerid=50441287&enzyme=Dihydroorotate+dehydrogenase&column=ki&startPg=0&Increment=50&submit=Search

> <PubChem CID>
91898848

> <PubChem SID>
175453604

$$$$

  Mrv2115 07222212352D          

 31 34  0  0  0  0            999 V2000
    1.4289   -0.0000    0.0000 C   0  0  0  0  0  0  0  0  0  0  0  0
    0.7145   -0.4125    0.0000 N   0  0  0  0  0  0  0  0  0  0  0  0
    0.0000    0.0000    0.0000 N   0  0  0  0  0  0  0  0  0  0  0  0
    0.0000    0.8250    0.0000 C   0  0  0  0  0  0  0  0  0  0  0  0
   -0.7145    1.2375    0.0000 C   0  0  0  0  0  0  0  0  0  0  0  0
   -1.4289    0.8250    0.0000 C   0  0  0  0  0  0  0  0  0  0  0  0
   -2.1434    1.2375    0.0000 C   0  0  0  0  0  0  0  0  0  0  0  0
   -2.1434    2.0625    0.0000 C   0  0  0  0  0  0  0  0  0  0  0  0
   -1.4289    2.4750    0.0000 C   0  0  0  0  0  0  0  0  0  0  0  0
   -0.7145    2.0625    0.0000 C   0  0  0  0  0  0  0  0  0  0  0  0
    0.0000    2.4750    0.0000 C   0  0  0  0  0  0  0  0  0  0  0  0
    0.7145    2.0625    0.0000 O   0  0  0  0  0  0  0  0  0  0  0  0
    0.0000    3.3000    0.0000 O   0  0  0  0  0  0  0  0  0  0  0  0
    0.7145    3.7125    0.0000 C   0  0  0  0  0  0  0  0  0  0  0  0
    0.7145    4.5375    0.0000 C   0  0  0  0  0  0  0  0  0  0  0  0
    1.4289    4.9500    0.0000 C   0  0  0  0  0  0  0  0  0  0  0  0
    2.1434    4.5375    0.0000 C   0  0  0  0  0  0  0  0  0  0  0  0
    2.1434    3.7125    0.0000 C   0  0  0  0  0  0  0  0  0  0  0  0
    1.4289    3.3000    0.0000 C   0  0  0  0  0  0  0  0  0  0  0  0
    0.7145   -1.2375    0.0000 C   0  0  0  0  0  0  0  0  0  0  0  0
    1.3819   -1.7224    0.0000 N   0  0  0  0  0  0  0  0  0  0  0  0
    1.1270   -2.5070    0.0000 C   0  0  0  0  0  0  0  0  0  0  0  0
    1.6119   -3.1745    0.0000 C   0  0  0  0  0  0  0  0  0  0  0  0
    2.4324   -3.0882    0.0000 C   0  0  0  0  0  0  0  0  0  0  0  0
    2.9173   -3.7557    0.0000 C   0  0  0  0  0  0  0  0  0  0  0  0
    2.5817   -4.5094    0.0000 C   0  0  0  0  0  0  0  0  0  0  0  0
    1.7613   -4.5956    0.0000 C   0  0  0  0  0  0  0  0  0  0  0  0
    1.2763   -3.9282    0.0000 C   0  0  0  0  0  0  0  0  0  0  0  0
    0.4559   -4.0144    0.0000 Cl  0  0  0  0  0  0  0  0  0  0  0  0
    0.3020   -2.5070    0.0000 C   0  0  0  0  0  0  0  0  0  0  0  0
    0.0470   -1.7224    0.0000 S   0  0  0  0  0  0  0  0  0  0  0  0
  1  2  1  0  0  0  0
  2  3  1  0  0  0  0
  3  4  2  0  0  0  0
  4  5  1  0  0  0  0
  5  6  4  0  0  0  0
  6  7  4  0  0  0  0
  7  8  4  0  0  0  0
  8  9  4  0  0  0  0
  9 10  4  0  0  0  0
  5 10  4  0  0  0  0
 10 11  1  0  0  0  0
 11 12  2  0  0  0  0
 11 13  1  0  0  0  0
 13 14  1  0  0  0  0
 14 15  1  0  0  0  0
 15 16  1  0  0  0  0
 16 17  1  0  0  0  0
 17 18  1  0  0  0  0
 18 19  1  0  0  0  0
 14 19  1  0  0  0  0
  2 20  1  0  0  0  0
 20 21  4  0  0  0  0
 21 22  4  0  0  0  0
 22 23  1  0  0  0  0
 23 24  4  0  0  0  0
 24 25  4  0  0  0  0
 25 26  4  0  0  0  0
 26 27  4  0  0  0  0
 27 28  4  0  0  0  0
 23 28  4  0  0  0  0
 28 29  1  0  0  0  0
 22 30  4  0  0  0  0
 30 31  4  0  0  0  0
 20 31  4  0  0  0  0
M  END
> <IC50(uM)>
50.0

> <Outcome>
0.0

> <BindingDB ID>
1001155

> <BindingDB MonomerID>
482841

> <BindingDB Ligand Name>
US10919869, No.  B8

> <Curation/DataSource>
US Patent

> <Article DOI>
?

> <PMID>
?

> <Patent Number>
US10919869

> <Authors>
Li, H; Xu, Y; Wang, R; Zhao, Z; Song, W; Xu, L

> <Link to Ligand in BindingDB>
http://www.bindingdb.org/bind/chemsearch/marvin/MolStructure.jsp?monomerid=482841

> <Link to Ligand-Target Pair in BindingDB>
http://www.bindingdb.org/jsp/dbsearch/PrimarySearch_ki.jsp?energyterm=kJ/mole&tag=r21&monomerid=482841&enzyme=Dihydroorotate+dehydrogenase&column=ki&startPg=0&Increment=50&submit=Search

> <PubChem CID>
132157976

> <PubChem SID>
443551981

$$$$

  Mrv2115 07222212352D          

 21 24  0  0  0  0            999 V2000
    1.9457   -4.4410    0.0000 O   0  0  0  0  0  0  0  0  0  0  0  0
    1.1387   -4.2695    0.0000 C   0  0  0  0  0  0  0  0  0  0  0  0
    0.5867   -4.8826    0.0000 N   0  0  0  0  0  0  0  0  0  0  0  0
    0.8416   -5.6672    0.0000 C   0  0  0  0  0  0  0  0  0  0  0  0
    1.4547   -6.2193    0.0000 C   0  0  0  0  0  0  0  0  0  0  0  0
    0.6701   -6.4742    0.0000 C   0  0  0  0  0  0  0  0  0  0  0  0
    0.8838   -3.4849    0.0000 C   0  0  0  0  0  0  0  0  0  0  0  0
    0.0992   -3.2299    0.0000 C   0  0  0  0  0  0  0  0  0  0  0  0
    0.0992   -2.4049    0.0000 C   0  0  0  0  0  0  0  0  0  0  0  0
    0.8838   -2.1500    0.0000 C   0  0  0  0  0  0  0  0  0  0  0  0
    1.1387   -1.3654    0.0000 N   0  0  0  0  0  0  0  0  0  0  0  0
    0.6538   -0.6979    0.0000 C   0  0  0  0  0  0  0  0  0  0  0  0
    1.1387   -0.0305    0.0000 N   0  0  0  0  0  0  0  0  0  0  0  0
    1.9233   -0.2854    0.0000 C   0  0  0  0  0  0  0  0  0  0  0  0
    2.6378    0.1271    0.0000 C   0  0  0  0  0  0  0  0  0  0  0  0
    2.6378    0.9521    0.0000 F   0  0  0  0  0  0  0  0  0  0  0  0
    3.3523   -0.2854    0.0000 C   0  0  0  0  0  0  0  0  0  0  0  0
    3.3523   -1.1104    0.0000 C   0  0  0  0  0  0  0  0  0  0  0  0
    2.6378   -1.5229    0.0000 C   0  0  0  0  0  0  0  0  0  0  0  0
    1.9233   -1.1104    0.0000 C   0  0  0  0  0  0  0  0  0  0  0  0
    1.3687   -2.8174    0.0000 S   0  0  0  0  0  0  0  0  0  0  0  0
  1  2  2  0  0  0  0
  2  3  1  0  0  0  0
  3  4  1  0  0  0  0
  4  5  1  0  0  0  0
  5  6  1  0  0  0  0
  4  6  1  0  0  0  0
  2  7  1  0  0  0  0
  7  8  4  0  0  0  0
  8  9  4  0  0  0  0
  9 10  4  0  0  0  0
 10 11  1  0  0  0  0
 11 12  4  0  0  0  0
 12 13  4  0  0  0  0
 13 14  4  0  0  0  0
 14 15  4  0  0  0  0
 15 16  1  0  0  0  0
 15 17  4  0  0  0  0
 17 18  4  0  0  0  0
 18 19  4  0  0  0  0
 19 20  4  0  0  0  0
 14 20  4  0  0  0  0
 11 20  4  0  0  0  0
 10 21  4  0  0  0  0
  7 21  4  0  0  0  0
M  END
> <IC50(uM)>
14.9

> <Outcome>
0.0

> <BindingDB ID>
50924674

> <BindingDB MonomerID>
50379155

> <BindingDB Ligand Name>
CHEMBL2012966

> <Curation/DataSource>
ChEMBL

> <Article DOI>
10.1021/ml200143c

> <PMID>
24900364

> <Patent Number>
?

> <Authors>
Skerlj, RT; Bastos, CM; Booker, ML; Kramer, ML; Barker, RH; Celatka, CA; Munoz, B; Sidhu, AB; Cortese, JF; Wittlin, S; Papastogiannidis, P; Angulo-Barturen, I; Jimenez-Diaz, MB; Sybertz, E

> <Link to Ligand in BindingDB>
http://www.bindingdb.org/bind/chemsearch/marvin/MolStructure.jsp?monomerid=50379155

> <Link to Ligand-Target Pair in BindingDB>
http://www.bindingdb.org/jsp/dbsearch/PrimarySearch_ki.jsp?energyterm=kJ/mole&tag=r21&monomerid=50379155&enzyme=Dihydroorotate+dehydrogenase&column=ki&startPg=0&Increment=50&submit=Search

> <PubChem CID>
70681099

> <PubChem SID>
160858238

$$$$

  Mrv2115 07222212352D          

 22 23  0  0  0  0            999 V2000
    3.4656    1.1759    0.0000 C   0  0  0  0  0  0  0  0  0  0  0  0
    2.7512    0.7634    0.0000 C   0  0  0  0  0  0  0  0  0  0  0  0
    2.7512   -0.0616    0.0000 O   0  0  0  0  0  0  0  0  0  0  0  0
    2.0367   -0.4741    0.0000 C   0  0  0  0  0  0  0  0  0  0  0  0
    1.3222   -0.0616    0.0000 O   0  0  0  0  0  0  0  0  0  0  0  0
    2.0367   -1.2991    0.0000 C   0  0  0  0  0  0  0  0  0  0  0  0
    2.7041   -1.7840    0.0000 N   0  0  0  0  0  0  0  0  0  0  0  0
    2.4492   -2.5687    0.0000 C   0  0  0  0  0  0  0  0  0  0  0  0
    2.9341   -3.2361    0.0000 C   0  0  0  0  0  0  0  0  0  0  0  0
    1.6242   -2.5687    0.0000 C   0  0  0  0  0  0  0  0  0  0  0  0
    1.1393   -3.2361    0.0000 C   0  0  0  0  0  0  0  0  0  0  0  0
    0.3188   -3.1499    0.0000 C   0  0  0  0  0  0  0  0  0  0  0  0
   -0.1661   -3.8173    0.0000 C   0  0  0  0  0  0  0  0  0  0  0  0
   -0.9866   -3.7311    0.0000 C   0  0  0  0  0  0  0  0  0  0  0  0
   -1.3222   -2.9774    0.0000 C   0  0  0  0  0  0  0  0  0  0  0  0
   -2.1426   -2.8911    0.0000 C   0  0  0  0  0  0  0  0  0  0  0  0
   -2.6276   -3.5586    0.0000 C   0  0  0  0  0  0  0  0  0  0  0  0
   -2.4782   -2.1375    0.0000 C   0  0  0  0  0  0  0  0  0  0  0  0
   -0.8372   -2.3099    0.0000 C   0  0  0  0  0  0  0  0  0  0  0  0
   -0.0168   -2.3962    0.0000 C   0  0  0  0  0  0  0  0  0  0  0  0
    1.3693   -1.7840    0.0000 C   0  0  0  0  0  0  0  0  0  0  0  0
    0.5846   -1.5291    0.0000 C   0  0  0  0  0  0  0  0  0  0  0  0
  1  2  1  0  0  0  0
  2  3  1  0  0  0  0
  3  4  1  0  0  0  0
  4  5  2  0  0  0  0
  4  6  1  0  0  0  0
  6  7  4  0  0  0  0
  7  8  4  0  0  0  0
  8  9  1  0  0  0  0
  8 10  4  0  0  0  0
 10 11  1  0  0  0  0
 11 12  1  0  0  0  0
 12 13  4  0  0  0  0
 13 14  4  0  0  0  0
 14 15  4  0  0  0  0
 15 16  1  0  0  0  0
 16 17  1  0  0  0  0
 16 18  1  0  0  0  0
 15 19  4  0  0  0  0
 19 20  4  0  0  0  0
 12 20  4  0  0  0  0
 10 21  4  0  0  0  0
  6 21  4  0  0  0  0
 21 22  1  0  0  0  0
M  STY  1   1 DAT
M  SAL   1  1   7
M  SDT   1 MRV_IMPLICIT_H                                        
M  SDD   1     0.5304   -0.4125    DR    ALL  0       0  
M  SED   1 IMPL_H1
M  END
> <IC50(uM)>
100.0

> <Outcome>
0.0

> <BindingDB ID>
51330082

> <BindingDB MonomerID>
50538330

> <BindingDB Ligand Name>
CHEMBL4646226

> <Curation/DataSource>
ChEMBL

> <Article DOI>
10.1021/acs.jmedchem.0c00311

> <PMID>
32248693

> <Patent Number>
?

> <Authors>
Kokkonda, S; Deng, X; White, KL; El Mazouni, F; White, J; Shackleford, DM; Katneni, K; Chiu, FCK; Barker, H; McLaren, J; Crighton, E; Chen, G; Angulo-Barturen, I; Jimenez-Diaz, MB; Ferrer, S; Huertas-Valentin, L; Martinez-Martinez, MS; Lafuente-Monasterio, MJ; Chittimalla, R; Shahi, SP; Wittlin, S; Waterson, D; Burrows, JN; Matthews, D; Tomchick, D; Rathod, PK; Palmer, MJ; Charman, SA; Phillips, MA

> <Link to Ligand in BindingDB>
http://www.bindingdb.org/bind/chemsearch/marvin/MolStructure.jsp?monomerid=50538330

> <Link to Ligand-Target Pair in BindingDB>
http://www.bindingdb.org/jsp/dbsearch/PrimarySearch_ki.jsp?energyterm=kJ/mole&tag=r21&monomerid=50538330&enzyme=Dihydroorotate+dehydrogenase&column=ki&startPg=0&Increment=50&submit=Search

> <PubChem CID>
156019729

> <PubChem SID>
442139893

$$$$

  Mrv2115 07222212352D          

 25 27  0  0  0  0            999 V2000
    0.7145   -2.8875    0.0000 C   0  0  0  0  0  0  0  0  0  0  0  0
    1.4289   -2.4750    0.0000 O   0  0  0  0  0  0  0  0  0  0  0  0
    1.4289   -1.6500    0.0000 C   0  0  0  0  0  0  0  0  0  0  0  0
    0.7145   -1.2375    0.0000 C   0  0  0  0  0  0  0  0  0  0  0  0
    0.7145   -0.4125    0.0000 C   0  0  0  0  0  0  0  0  0  0  0  0
    1.4289    0.0000    0.0000 C   0  0  0  0  0  0  0  0  0  0  0  0
    2.1434   -0.4125    0.0000 C   0  0  0  0  0  0  0  0  0  0  0  0
    2.8579    0.0000    0.0000 C   0  0  0  0  0  0  0  0  0  0  0  0
    3.5724   -0.4125    0.0000 C   0  0  0  0  0  0  0  0  0  0  0  0
    4.2868   -0.0000    0.0000 C   0  0  0  0  0  0  0  0  0  0  0  0
    4.2868    0.8250    0.0000 C   0  0  0  0  0  0  0  0  0  0  0  0
    5.0013    1.2375    0.0000 C   0  0  0  0  0  0  0  0  0  0  0  0
    5.0013    2.0625    0.0000 C   0  0  0  0  0  0  0  0  0  0  0  0
    4.2868    2.4750    0.0000 C   0  0  0  0  0  0  0  0  0  0  0  0
    4.2868    3.3000    0.0000 O   0  0  0  0  0  0  0  0  0  0  0  0
    3.5724    2.0625    0.0000 O   0  0  0  0  0  0  0  0  0  0  0  0
    5.7158    2.4750    0.0000 N   0  0  0  0  0  0  0  0  0  0  0  0
    6.4302    2.0625    0.0000 C   0  0  0  0  0  0  0  0  0  0  0  0
    7.1447    2.4750    0.0000 O   0  0  0  0  0  0  0  0  0  0  0  0
    6.4302    1.2375    0.0000 N   0  0  0  0  0  0  0  0  0  0  0  0
    5.7158    0.8250    0.0000 C   0  0  0  0  0  0  0  0  0  0  0  0
    5.7158   -0.0000    0.0000 O   0  0  0  0  0  0  0  0  0  0  0  0
    3.5724   -1.2375    0.0000 C   0  0  0  0  0  0  0  0  0  0  0  0
    2.8579   -1.6500    0.0000 C   0  0  0  0  0  0  0  0  0  0  0  0
    2.1434   -1.2375    0.0000 C   0  0  0  0  0  0  0  0  0  0  0  0
  1  2  1  0  0  0  0
  2  3  1  0  0  0  0
  3  4  4  0  0  0  0
  4  5  4  0  0  0  0
  5  6  4  0  0  0  0
  6  7  4  0  0  0  0
  7  8  4  0  0  0  0
  8  9  4  0  0  0  0
  9 10  1  0  0  0  0
 10 11  1  0  0  0  0
 11 12  1  0  0  0  0
 12 13  4  0  0  0  0
 13 14  1  0  0  0  0
 14 15  2  0  0  0  0
 14 16  1  0  0  0  0
 13 17  4  0  0  0  0
 17 18  4  0  0  0  0
 18 19  2  0  0  0  0
 18 20  4  0  0  0  0
 20 21  4  0  0  0  0
 12 21  4  0  0  0  0
 21 22  2  0  0  0  0
  9 23  4  0  0  0  0
 23 24  4  0  0  0  0
 24 25  4  0  0  0  0
  3 25  4  0  0  0  0
  7 25  4  0  0  0  0
M  STY  2   1 DAT   2 DAT
M  SAL   1  1  17
M  SDT   1 MRV_IMPLICIT_H                                        
M  SDD   1     0.6482   -0.4125    DR    ALL  0       0  
M  SED   1 IMPL_H1
M  SAL   2  1  20
M  SDT   2 MRV_IMPLICIT_H                                        
M  SDD   2     0.5304   -0.4125    DR    ALL  0       0  
M  SED   2 IMPL_H1
M  END
> <IC50(uM)>
0.021

> <Outcome>
1.0

> <BindingDB ID>
50555416

> <BindingDB MonomerID>
50211943

> <BindingDB Ligand Name>
CHEMBL3914213

> <Curation/DataSource>
ChEMBL

> <Article DOI>
10.1016/j.bmc.2017.01.009

> <PMID>
28118956

> <Patent Number>
?

> <Authors>
Inaoka, DK; Iida, M; Hashimoto, S; Tabuchi, T; Kuranaga, T; Balogun, EO; Honma, T; Tanaka, A; Harada, S; Nara, T; Kita, K; Inoue, M

> <Link to Ligand in BindingDB>
http://www.bindingdb.org/bind/chemsearch/marvin/MolStructure.jsp?monomerid=50211943

> <Link to Ligand-Target Pair in BindingDB>
http://www.bindingdb.org/jsp/dbsearch/PrimarySearch_ki.jsp?energyterm=kJ/mole&tag=r21&monomerid=50211943&enzyme=Dihydroorotate+dehydrogenase&column=ki&startPg=0&Increment=50&submit=Search

> <PubChem CID>
134143212

> <PubChem SID>
104088021

$$$$

  Mrv2115 07222212352D          

 25 26  0  0  0  0            999 V2000
    1.9539   -4.4114    0.0000 C   0  0  0  0  0  0  0  0  0  0  0  0
    2.3664   -5.1259    0.0000 C   0  0  0  0  0  0  0  0  0  0  0  0
    3.1914   -5.1259    0.0000 C   0  0  0  0  0  0  0  0  0  0  0  0
    3.6039   -5.8404    0.0000 C   0  0  0  0  0  0  0  0  0  0  0  0
    4.4289   -5.8404    0.0000 C   0  0  0  0  0  0  0  0  0  0  0  0
    4.8414   -5.1259    0.0000 C   0  0  0  0  0  0  0  0  0  0  0  0
    4.4289   -4.4114    0.0000 C   0  0  0  0  0  0  0  0  0  0  0  0
    3.6084   -4.3252    0.0000 O   0  0  0  0  0  0  0  0  0  0  0  0
    3.4369   -3.5182    0.0000 N   0  0  0  0  0  0  0  0  0  0  0  0
    4.1514   -3.1057    0.0000 C   0  0  0  0  0  0  0  0  0  0  0  0
    4.7645   -3.6578    0.0000 C   0  0  0  0  0  0  0  0  0  0  0  0
    5.5715   -3.4862    0.0000 C   0  0  0  0  0  0  0  0  0  0  0  0
    6.1235   -4.0993    0.0000 S   0  0  0  0  0  0  0  0  0  0  0  0
    5.8264   -2.7016    0.0000 N   0  0  0  0  0  0  0  0  0  0  0  0
    6.6334   -2.5301    0.0000 C   0  0  0  0  0  0  0  0  0  0  0  0
    6.8883   -1.7455    0.0000 C   0  0  0  0  0  0  0  0  0  0  0  0
    7.6953   -1.5739    0.0000 C   0  0  0  0  0  0  0  0  0  0  0  0
    8.2473   -2.1870    0.0000 C   0  0  0  0  0  0  0  0  0  0  0  0
    9.0543   -2.0155    0.0000 O   0  0  0  0  0  0  0  0  0  0  0  0
    9.3092   -1.2309    0.0000 C   0  0  0  0  0  0  0  0  0  0  0  0
    9.5642   -0.4463    0.0000 F   0  0  0  0  0  0  0  0  0  0  0  0
   10.0938   -1.4858    0.0000 F   0  0  0  0  0  0  0  0  0  0  0  0
    8.5246   -0.9759    0.0000 F   0  0  0  0  0  0  0  0  0  0  0  0
    7.9924   -2.9716    0.0000 C   0  0  0  0  0  0  0  0  0  0  0  0
    7.1854   -3.1432    0.0000 C   0  0  0  0  0  0  0  0  0  0  0  0
  1  2  1  0  0  0  0
  2  3  1  0  0  0  0
  3  4  1  0  0  0  0
  4  5  1  0  0  0  0
  5  6  1  0  0  0  0
  6  7  1  0  0  0  0
  7  8  4  0  0  0  0
  8  9  4  0  0  0  0
  9 10  4  0  0  0  0
 10 11  4  0  0  0  0
  7 11  4  0  0  0  0
 11 12  1  0  0  0  0
 12 13  2  0  0  0  0
 12 14  1  0  0  0  0
 14 15  1  0  0  0  0
 15 16  4  0  0  0  0
 16 17  4  0  0  0  0
 17 18  4  0  0  0  0
 18 19  1  0  0  0  0
 19 20  1  0  0  0  0
 20 21  1  0  0  0  0
 20 22  1  0  0  0  0
 20 23  1  0  0  0  0
 18 24  4  0  0  0  0
 24 25  4  0  0  0  0
 15 25  4  0  0  0  0
M  END
> <IC50(uM)>
50.0

> <Outcome>
0.0

> <BindingDB ID>
50123304

> <BindingDB MonomerID>
50071397

> <BindingDB Ligand Name>
5-Hexyl-isoxazole-4-carbothioic acid (4-trifluoromethoxy-phenyl)-amide::CHEMBL68539

> <Curation/DataSource>
ChEMBL

> <Article DOI>
10.1016/s0960-894x(98)00365-5

> <PMID>
9873513

> <Patent Number>
?

> <Authors>
Albert, R; Knecht, H; Andersen, E; Hungerford, V; Schreier, MH; Papageorgiou, C

> <Link to Ligand in BindingDB>
http://www.bindingdb.org/bind/chemsearch/marvin/MolStructure.jsp?monomerid=50071397

> <Link to Ligand-Target Pair in BindingDB>
http://www.bindingdb.org/jsp/dbsearch/PrimarySearch_ki.jsp?energyterm=kJ/mole&tag=r21&monomerid=50071397&enzyme=Dihydroorotate+dehydrogenase&column=ki&startPg=0&Increment=50&submit=Search

> <PubChem CID>
44310364

> <PubChem SID>
103965151

$$$$

  Mrv2115 07222212352D          

 28 31  0  0  0  0            999 V2000
   -6.3587   -1.4124    0.0000 C   0  0  0  0  0  0  0  0  0  0  0  0
   -5.5337   -1.4124    0.0000 C   0  0  0  0  0  0  0  0  0  0  0  0
   -5.1212   -2.1269    0.0000 O   0  0  0  0  0  0  0  0  0  0  0  0
   -5.1212   -0.6979    0.0000 N   0  0  0  0  0  0  0  0  0  0  0  0
   -4.2962   -0.6979    0.0000 C   0  0  0  0  0  0  0  0  0  0  0  0
   -3.8837    0.0165    0.0000 C   0  0  0  0  0  0  0  0  0  0  0  0
   -3.0587    0.0165    0.0000 C   0  0  0  0  0  0  0  0  0  0  0  0
   -2.6462   -0.6979    0.0000 C   0  0  0  0  0  0  0  0  0  0  0  0
   -1.8212   -0.6979    0.0000 C   0  0  0  0  0  0  0  0  0  0  0  0
   -1.4087    0.0165    0.0000 C   0  0  0  0  0  0  0  0  0  0  0  0
   -0.5837    0.0165    0.0000 C   0  0  0  0  0  0  0  0  0  0  0  0
   -0.1712   -0.6979    0.0000 C   0  0  0  0  0  0  0  0  0  0  0  0
    0.6538   -0.6979    0.0000 C   0  0  0  0  0  0  0  0  0  0  0  0
    1.1387   -0.0305    0.0000 N   0  0  0  0  0  0  0  0  0  0  0  0
    1.9233   -0.2854    0.0000 C   0  0  0  0  0  0  0  0  0  0  0  0
    2.6378    0.1271    0.0000 C   0  0  0  0  0  0  0  0  0  0  0  0
    2.6378    0.9521    0.0000 C   0  0  0  0  0  0  0  0  0  0  0  0
    1.9233    1.3646    0.0000 N   0  0  0  0  0  0  0  0  0  0  0  0
    3.3523    1.3646    0.0000 O   0  0  0  0  0  0  0  0  0  0  0  0
    3.3523   -0.2854    0.0000 C   0  0  0  0  0  0  0  0  0  0  0  0
    3.3523   -1.1104    0.0000 C   0  0  0  0  0  0  0  0  0  0  0  0
    2.6378   -1.5229    0.0000 C   0  0  0  0  0  0  0  0  0  0  0  0
    1.9233   -1.1104    0.0000 C   0  0  0  0  0  0  0  0  0  0  0  0
    1.1387   -1.3654    0.0000 N   0  0  0  0  0  0  0  0  0  0  0  0
   -0.5837   -1.4124    0.0000 C   0  0  0  0  0  0  0  0  0  0  0  0
   -1.4087   -1.4124    0.0000 C   0  0  0  0  0  0  0  0  0  0  0  0
   -3.0587   -1.4124    0.0000 C   0  0  0  0  0  0  0  0  0  0  0  0
   -3.8837   -1.4124    0.0000 C   0  0  0  0  0  0  0  0  0  0  0  0
  1  2  1  0  0  0  0
  2  3  2  0  0  0  0
  2  4  1  0  0  0  0
  4  5  1  0  0  0  0
  5  6  4  0  0  0  0
  6  7  4  0  0  0  0
  7  8  4  0  0  0  0
  8  9  1  0  0  0  0
  9 10  4  0  0  0  0
 10 11  4  0  0  0  0
 11 12  4  0  0  0  0
 12 13  1  0  0  0  0
 13 14  4  0  0  0  0
 14 15  4  0  0  0  0
 15 16  4  0  0  0  0
 16 17  1  0  0  0  0
 17 18  1  0  0  0  0
 17 19  2  0  0  0  0
 16 20  4  0  0  0  0
 20 21  4  0  0  0  0
 21 22  4  0  0  0  0
 22 23  4  0  0  0  0
 15 23  4  0  0  0  0
 23 24  4  0  0  0  0
 13 24  4  0  0  0  0
 12 25  4  0  0  0  0
 25 26  4  0  0  0  0
  9 26  4  0  0  0  0
  8 27  4  0  0  0  0
 27 28  4  0  0  0  0
  5 28  4  0  0  0  0
M  STY  1   1 DAT
M  SAL   1  1  24
M  SDT   1 MRV_IMPLICIT_H                                        
M  SDD   1     0.5304   -0.4125    DR    ALL  0       0  
M  SED   1 IMPL_H1
M  END
> <IC50(uM)>
56.0

> <Outcome>
0.0

> <BindingDB ID>
50358220

> <BindingDB MonomerID>
50096143

> <BindingDB Ligand Name>
CHEMBL3593986

> <Curation/DataSource>
ChEMBL

> <Article DOI>
10.1016/j.bmc.2015.05.051

> <PMID>
26088338

> <Patent Number>
?

> <Authors>
Abdullah, I; Chee, CF; Lee, YK; Thunuguntla, SS; Satish Reddy, K; Nellore, K; Antony, T; Verma, J; Mun, KW; Othman, S; Subramanya, H; Rahman, NA

> <Link to Ligand in BindingDB>
http://www.bindingdb.org/bind/chemsearch/marvin/MolStructure.jsp?monomerid=50096143

> <Link to Ligand-Target Pair in BindingDB>
http://www.bindingdb.org/jsp/dbsearch/PrimarySearch_ki.jsp?energyterm=kJ/mole&tag=r21&monomerid=50096143&enzyme=Dihydroorotate+dehydrogenase&column=ki&startPg=0&Increment=50&submit=Search

> <PubChem CID>
122182314

> <PubChem SID>
318473796

$$$$

  Mrv2115 07222212352D          

 25 27  0  0  0  0            999 V2000
    1.4289   -2.4750    0.0000 O   0  0  0  0  0  0  0  0  0  0  0  0
    2.1434   -2.8875    0.0000 C   0  0  0  0  0  0  0  0  0  0  0  0
    2.8579   -2.4750    0.0000 O   0  0  0  0  0  0  0  0  0  0  0  0
    2.1434   -3.7125    0.0000 C   0  0  0  0  0  0  0  0  0  0  0  0
    1.4289   -4.1250    0.0000 C   0  0  0  0  0  0  0  0  0  0  0  0
    1.4289   -4.9500    0.0000 C   0  0  0  0  0  0  0  0  0  0  0  0
    0.7145   -5.3625    0.0000 Cl  0  0  0  0  0  0  0  0  0  0  0  0
    2.1434   -5.3625    0.0000 C   0  0  0  0  0  0  0  0  0  0  0  0
    2.8579   -4.9500    0.0000 N   0  0  0  0  0  0  0  0  0  0  0  0
    2.8579   -4.1250    0.0000 C   0  0  0  0  0  0  0  0  0  0  0  0
    3.5724   -3.7125    0.0000 N   0  0  0  0  0  0  0  0  0  0  0  0
    4.2868   -4.1250    0.0000 C   0  0  0  0  0  0  0  0  0  0  0  0
    5.0013   -3.7125    0.0000 C   0  0  0  0  0  0  0  0  0  0  0  0
    5.0013   -2.8875    0.0000 F   0  0  0  0  0  0  0  0  0  0  0  0
    5.7158   -4.1250    0.0000 C   0  0  0  0  0  0  0  0  0  0  0  0
    5.7158   -4.9500    0.0000 C   0  0  0  0  0  0  0  0  0  0  0  0
    6.4302   -5.3625    0.0000 C   0  0  0  0  0  0  0  0  0  0  0  0
    7.1447   -4.9500    0.0000 C   0  0  0  0  0  0  0  0  0  0  0  0
    7.8592   -5.3625    0.0000 C   0  0  0  0  0  0  0  0  0  0  0  0
    7.8592   -6.1875    0.0000 C   0  0  0  0  0  0  0  0  0  0  0  0
    7.1447   -6.6000    0.0000 C   0  0  0  0  0  0  0  0  0  0  0  0
    6.4302   -6.1875    0.0000 C   0  0  0  0  0  0  0  0  0  0  0  0
    5.0013   -5.3625    0.0000 C   0  0  0  0  0  0  0  0  0  0  0  0
    4.2868   -4.9500    0.0000 C   0  0  0  0  0  0  0  0  0  0  0  0
    3.5724   -5.3625    0.0000 F   0  0  0  0  0  0  0  0  0  0  0  0
  1  2  2  0  0  0  0
  2  3  1  0  0  0  0
  2  4  1  0  0  0  0
  4  5  4  0  0  0  0
  5  6  4  0  0  0  0
  6  7  1  0  0  0  0
  6  8  4  0  0  0  0
  8  9  4  0  0  0  0
  9 10  4  0  0  0  0
  4 10  4  0  0  0  0
 10 11  1  0  0  0  0
 11 12  1  0  0  0  0
 12 13  4  0  0  0  0
 13 14  1  0  0  0  0
 13 15  4  0  0  0  0
 15 16  4  0  0  0  0
 16 17  1  0  0  0  0
 17 18  4  0  0  0  0
 18 19  4  0  0  0  0
 19 20  4  0  0  0  0
 20 21  4  0  0  0  0
 21 22  4  0  0  0  0
 17 22  4  0  0  0  0
 16 23  4  0  0  0  0
 23 24  4  0  0  0  0
 12 24  4  0  0  0  0
 24 25  1  0  0  0  0
M  END
> <IC50(uM)>
0.008

> <Outcome>
1.0

> <BindingDB ID>
246923; 51186829

> <BindingDB MonomerID>
119830

> <BindingDB Ligand Name>
US8691852, 58

> <Curation/DataSource>
US Patent; ChEMBL

> <Article DOI>
?; 10.1007/s00044-011-9837-4

> <PMID>
?

> <Patent Number>
US8691852; ?

> <Authors>
Castro Palomino Laria, JC; Erra Sola, M; Lozoya Toribio, ME; Navarro Romero, E; n/a

> <Link to Ligand in BindingDB>
http://www.bindingdb.org/bind/chemsearch/marvin/MolStructure.jsp?monomerid=119830

> <Link to Ligand-Target Pair in BindingDB>
http://www.bindingdb.org/jsp/dbsearch/PrimarySearch_ki.jsp?energyterm=kJ/mole&tag=r21&monomerid=119830&enzyme=Dihydroorotate+dehydrogenase&column=ki&startPg=0&Increment=50&submit=Search

> <PubChem CID>
24989026

> <PubChem SID>
220230624

$$$$

  Mrv2115 07222212352D          

 30 33  0  0  0  0            999 V2000
    4.0668    2.3479    0.0000 C   0  0  0  0  0  0  0  0  0  0  0  0
    3.3523    1.9354    0.0000 C   0  0  0  0  0  0  0  0  0  0  0  0
    3.3523    1.1104    0.0000 C   0  0  0  0  0  0  0  0  0  0  0  0
    2.6378    0.6979    0.0000 C   0  0  0  0  0  0  0  0  0  0  0  0
    2.6378   -0.1271    0.0000 C   0  0  0  0  0  0  0  0  0  0  0  0
    1.9233   -0.5396    0.0000 O   0  0  0  0  0  0  0  0  0  0  0  0
    3.3523   -0.5396    0.0000 O   0  0  0  0  0  0  0  0  0  0  0  0
    1.9233    1.1104    0.0000 C   0  0  0  0  0  0  0  0  0  0  0  0
    1.1387    0.8555    0.0000 N   0  0  0  0  0  0  0  0  0  0  0  0
    0.6538    1.5229    0.0000 C   0  0  0  0  0  0  0  0  0  0  0  0
   -0.1712    1.5229    0.0000 C   0  0  0  0  0  0  0  0  0  0  0  0
   -0.5837    0.8085    0.0000 C   0  0  0  0  0  0  0  0  0  0  0  0
   -0.1712    0.0940    0.0000 F   0  0  0  0  0  0  0  0  0  0  0  0
   -1.4087    0.8085    0.0000 C   0  0  0  0  0  0  0  0  0  0  0  0
   -1.8212    0.0940    0.0000 F   0  0  0  0  0  0  0  0  0  0  0  0
   -1.8212    1.5229    0.0000 C   0  0  0  0  0  0  0  0  0  0  0  0
   -2.6462    1.5229    0.0000 C   0  0  0  0  0  0  0  0  0  0  0  0
   -3.0587    0.8085    0.0000 C   0  0  0  0  0  0  0  0  0  0  0  0
   -3.8837    0.8085    0.0000 C   0  0  0  0  0  0  0  0  0  0  0  0
   -4.2962    1.5229    0.0000 C   0  0  0  0  0  0  0  0  0  0  0  0
   -3.8837    2.2374    0.0000 C   0  0  0  0  0  0  0  0  0  0  0  0
   -4.2962    2.9519    0.0000 O   0  0  0  0  0  0  0  0  0  0  0  0
   -3.0587    2.2374    0.0000 C   0  0  0  0  0  0  0  0  0  0  0  0
   -1.4087    2.2374    0.0000 C   0  0  0  0  0  0  0  0  0  0  0  0
   -1.8212    2.9519    0.0000 F   0  0  0  0  0  0  0  0  0  0  0  0
   -0.5837    2.2374    0.0000 C   0  0  0  0  0  0  0  0  0  0  0  0
   -0.1712    2.9519    0.0000 F   0  0  0  0  0  0  0  0  0  0  0  0
    1.1387    2.1904    0.0000 N   0  0  0  0  0  0  0  0  0  0  0  0
    1.9233    1.9354    0.0000 C   0  0  0  0  0  0  0  0  0  0  0  0
    2.6378    2.3479    0.0000 C   0  0  0  0  0  0  0  0  0  0  0  0
  1  2  1  0  0  0  0
  2  3  4  0  0  0  0
  3  4  4  0  0  0  0
  4  5  1  0  0  0  0
  5  6  2  0  0  0  0
  5  7  1  0  0  0  0
  4  8  4  0  0  0  0
  8  9  4  0  0  0  0
  9 10  4  0  0  0  0
 10 11  1  0  0  0  0
 11 12  4  0  0  0  0
 12 13  1  0  0  0  0
 12 14  4  0  0  0  0
 14 15  1  0  0  0  0
 14 16  4  0  0  0  0
 16 17  1  0  0  0  0
 17 18  4  0  0  0  0
 18 19  4  0  0  0  0
 19 20  4  0  0  0  0
 20 21  4  0  0  0  0
 21 22  1  0  0  0  0
 21 23  4  0  0  0  0
 17 23  4  0  0  0  0
 16 24  4  0  0  0  0
 24 25  1  0  0  0  0
 24 26  4  0  0  0  0
 11 26  4  0  0  0  0
 26 27  1  0  0  0  0
 10 28  4  0  0  0  0
 28 29  4  0  0  0  0
  8 29  4  0  0  0  0
 29 30  4  0  0  0  0
  2 30  4  0  0  0  0
M  STY  1   1 DAT
M  SAL   1  1   9
M  SDT   1 MRV_IMPLICIT_H                                        
M  SDD   1     0.5304   -0.4125    DR    ALL  0       0  
M  SED   1 IMPL_H1
M  END
> <IC50(uM)>
0.0135

> <Outcome>
1.0

> <BindingDB ID>
297806

> <BindingDB MonomerID>
155462

> <BindingDB Ligand Name>
US9006454, I104

> <Curation/DataSource>
US Patent

> <Article DOI>
?

> <PMID>
?

> <Patent Number>
US9006454

> <Authors>
Thunuguntla, SS; Subramanya, H; Kunnam, SR; Sanivaru Vijay, SR; Bingi, C; Kusanur, R; Schwarz, M; Arlt, M

> <Link to Ligand in BindingDB>
http://www.bindingdb.org/bind/chemsearch/marvin/MolStructure.jsp?monomerid=155462

> <Link to Ligand-Target Pair in BindingDB>
http://www.bindingdb.org/jsp/dbsearch/PrimarySearch_ki.jsp?energyterm=kJ/mole&tag=r21&monomerid=155462&enzyme=Dihydroorotate+dehydrogenase&column=ki&startPg=0&Increment=50&submit=Search

> <PubChem CID>
88582991

> <PubChem SID>
253658399

$$$$

  Mrv2115 07222212352D          

 25 28  0  0  0  0            999 V2000
    6.8513   -2.4750    0.0000 C   0  0  0  0  0  0  0  0  0  0  0  0
    6.1368   -2.8875    0.0000 C   0  0  0  0  0  0  0  0  0  0  0  0
    6.1368   -3.7125    0.0000 C   0  0  0  0  0  0  0  0  0  0  0  0
    5.4223   -4.1250    0.0000 C   0  0  0  0  0  0  0  0  0  0  0  0
    5.4223   -4.9500    0.0000 N   0  0  0  0  0  0  0  0  0  0  0  0
    6.1368   -5.3625    0.0000 C   0  0  0  0  0  0  0  0  0  0  0  0
    6.8513   -4.9500    0.0000 C   0  0  0  0  0  0  0  0  0  0  0  0
    7.5658   -5.3625    0.0000 C   0  0  0  0  0  0  0  0  0  0  0  0
    7.5658   -6.1875    0.0000 C   0  0  0  0  0  0  0  0  0  0  0  0
    8.2802   -6.6000    0.0000 C   0  0  0  0  0  0  0  0  0  0  0  0
    8.2802   -7.4250    0.0000 C   0  0  0  0  0  0  0  0  0  0  0  0
    7.5658   -7.8375    0.0000 C   0  0  0  0  0  0  0  0  0  0  0  0
    6.8513   -7.4250    0.0000 C   0  0  0  0  0  0  0  0  0  0  0  0
    6.8513   -6.6000    0.0000 C   0  0  0  0  0  0  0  0  0  0  0  0
    6.1368   -6.1875    0.0000 C   0  0  0  0  0  0  0  0  0  0  0  0
    4.7079   -3.7125    0.0000 N   0  0  0  0  0  0  0  0  0  0  0  0
    3.9232   -3.9674    0.0000 N   0  0  0  0  0  0  0  0  0  0  0  0
    3.4383   -3.3000    0.0000 C   0  0  0  0  0  0  0  0  0  0  0  0
    2.6133   -3.3000    0.0000 C   0  0  0  0  0  0  0  0  0  0  0  0
    1.7883   -3.3000    0.0000 F   0  0  0  0  0  0  0  0  0  0  0  0
    2.6133   -2.4750    0.0000 F   0  0  0  0  0  0  0  0  0  0  0  0
    2.6133   -4.1250    0.0000 F   0  0  0  0  0  0  0  0  0  0  0  0
    3.9232   -2.6326    0.0000 N   0  0  0  0  0  0  0  0  0  0  0  0
    4.7079   -2.8875    0.0000 C   0  0  0  0  0  0  0  0  0  0  0  0
    5.4223   -2.4750    0.0000 N   0  0  0  0  0  0  0  0  0  0  0  0
  1  2  1  0  0  0  0
  2  3  4  0  0  0  0
  3  4  4  0  0  0  0
  4  5  1  0  0  0  0
  5  6  1  0  0  0  0
  6  7  1  0  0  0  0
  7  8  1  0  0  0  0
  8  9  1  0  0  0  0
  9 10  4  0  0  0  0
 10 11  4  0  0  0  0
 11 12  4  0  0  0  0
 12 13  4  0  0  0  0
 13 14  4  0  0  0  0
  9 14  4  0  0  0  0
 14 15  1  0  0  0  0
  6 15  1  0  0  0  0
  4 16  4  0  0  0  0
 16 17  4  0  0  0  0
 17 18  4  0  0  0  0
 18 19  1  0  0  0  0
 19 20  1  0  0  0  0
 19 21  1  0  0  0  0
 19 22  1  0  0  0  0
 18 23  4  0  0  0  0
 23 24  4  0  0  0  0
 16 24  4  0  0  0  0
 24 25  4  0  0  0  0
  2 25  4  0  0  0  0
M  END
> <IC50(uM)>
100.0

> <Outcome>
0.0

> <BindingDB ID>
51373007

> <BindingDB MonomerID>
173504

> <BindingDB Ligand Name>
US9238653, Table 5, Compound 41

> <Curation/DataSource>
ChEMBL

> <Article DOI>
?

> <PMID>
27127993

> <Patent Number>
?

> <Authors>
Kokkonda, S; Deng, X; White, KL; Coteron, JM; Marco, M; de Las Heras, L; White, J; El Mazouni, F; Tomchick, DR; Manjalanagara, K; Rudra, KR; Chen, G; Morizzi, J; Ryan, E; Kaminsky, W; Leroy, D; Mart??nez-Mart??nez, MS; Jimenez-Diaz, MB; Bazaga, SF; Angulo-Barturen, I; Waterson, D; Burrows, JN; Matthews, D; Charman, SA; Phillips, MA; Rathod, PK

> <Link to Ligand in BindingDB>
http://www.bindingdb.org/bind/chemsearch/marvin/MolStructure.jsp?monomerid=173504

> <Link to Ligand-Target Pair in BindingDB>
http://www.bindingdb.org/jsp/dbsearch/PrimarySearch_ki.jsp?energyterm=kJ/mole&tag=r21&monomerid=173504&enzyme=Dihydroorotate+dehydrogenase&column=ki&startPg=0&Increment=50&submit=Search

> <PubChem CID>
51349278

> <PubChem SID>
312697403

$$$$

  Mrv2115 07222212352D          

 27 31  0  0  0  0            999 V2000
    3.3523   -0.2854    0.0000 O   0  0  0  0  0  0  0  0  0  0  0  0
    3.3523   -1.1104    0.0000 C   0  0  0  0  0  0  0  0  0  0  0  0
    4.0668   -1.5229    0.0000 C   0  0  0  0  0  0  0  0  0  0  0  0
    4.7812   -1.1104    0.0000 C   0  0  0  0  0  0  0  0  0  0  0  0
    5.4957   -1.5229    0.0000 C   0  0  0  0  0  0  0  0  0  0  0  0
    5.4957   -2.3479    0.0000 C   0  0  0  0  0  0  0  0  0  0  0  0
    4.7812   -2.7604    0.0000 C   0  0  0  0  0  0  0  0  0  0  0  0
    4.0668   -2.3479    0.0000 C   0  0  0  0  0  0  0  0  0  0  0  0
    3.3523   -2.7604    0.0000 C   0  0  0  0  0  0  0  0  0  0  0  0
    3.3523   -3.5854    0.0000 O   0  0  0  0  0  0  0  0  0  0  0  0
    2.6378   -2.3479    0.0000 C   0  0  0  0  0  0  0  0  0  0  0  0
    2.6378   -1.5229    0.0000 C   0  0  0  0  0  0  0  0  0  0  0  0
    1.8532   -1.2680    0.0000 N   0  0  0  0  0  0  0  0  0  0  0  0
    1.3683   -1.9354    0.0000 N   0  0  0  0  0  0  0  0  0  0  0  0
    1.8532   -2.6029    0.0000 N   0  0  0  0  0  0  0  0  0  0  0  0
    1.5983   -3.3875    0.0000 C   0  0  0  0  0  0  0  0  0  0  0  0
    2.1503   -4.0006    0.0000 C   0  0  0  0  0  0  0  0  0  0  0  0
    1.8953   -4.7852    0.0000 C   0  0  0  0  0  0  0  0  0  0  0  0
    1.0884   -4.9567    0.0000 C   0  0  0  0  0  0  0  0  0  0  0  0
    0.8334   -5.7414    0.0000 C   0  0  0  0  0  0  0  0  0  0  0  0
    1.3855   -6.3545    0.0000 C   0  0  0  0  0  0  0  0  0  0  0  0
    1.1305   -7.1391    0.0000 C   0  0  0  0  0  0  0  0  0  0  0  0
    0.3236   -7.3106    0.0000 N   0  0  0  0  0  0  0  0  0  0  0  0
   -0.2285   -6.6975    0.0000 C   0  0  0  0  0  0  0  0  0  0  0  0
    0.0265   -5.9129    0.0000 C   0  0  0  0  0  0  0  0  0  0  0  0
    0.5363   -4.3437    0.0000 C   0  0  0  0  0  0  0  0  0  0  0  0
    0.7913   -3.5590    0.0000 C   0  0  0  0  0  0  0  0  0  0  0  0
  1  2  2  0  0  0  0
  2  3  1  0  0  0  0
  3  4  4  0  0  0  0
  4  5  4  0  0  0  0
  5  6  4  0  0  0  0
  6  7  4  0  0  0  0
  7  8  4  0  0  0  0
  3  8  4  0  0  0  0
  8  9  1  0  0  0  0
  9 10  2  0  0  0  0
  9 11  1  0  0  0  0
 11 12  4  0  0  0  0
  2 12  1  0  0  0  0
 12 13  4  0  0  0  0
 13 14  4  0  0  0  0
 14 15  4  0  0  0  0
 11 15  4  0  0  0  0
 15 16  1  0  0  0  0
 16 17  4  0  0  0  0
 17 18  4  0  0  0  0
 18 19  4  0  0  0  0
 19 20  1  0  0  0  0
 20 21  4  0  0  0  0
 21 22  4  0  0  0  0
 22 23  4  0  0  0  0
 23 24  4  0  0  0  0
 24 25  4  0  0  0  0
 20 25  4  0  0  0  0
 19 26  4  0  0  0  0
 26 27  4  0  0  0  0
 16 27  4  0  0  0  0
M  END
> <IC50(uM)>
1.0

> <Outcome>
1.0

> <BindingDB ID>
51338178

> <BindingDB MonomerID>
50541652

> <BindingDB Ligand Name>
CHEMBL4645294

> <Curation/DataSource>
ChEMBL

> <Article DOI>
10.1021/acs.jmedchem.0c00512

> <PMID>
32496056

> <Patent Number>
?

> <Authors>
Zuo, Z; Liu, X; Qian, X; Zeng, T; Sang, N; Liu, H; Zhou, Y; Tao, L; Zhou, X; Su, N; Yu, Y; Chen, Q; Luo, Y; Zhao, Y

> <Link to Ligand in BindingDB>
http://www.bindingdb.org/bind/chemsearch/marvin/MolStructure.jsp?monomerid=50541652

> <Link to Ligand-Target Pair in BindingDB>
http://www.bindingdb.org/jsp/dbsearch/PrimarySearch_ki.jsp?energyterm=kJ/mole&tag=r21&monomerid=50541652&enzyme=Dihydroorotate+dehydrogenase&column=ki&startPg=0&Increment=50&submit=Search

> <PubChem CID>
156018143

> <PubChem SID>
442143215

$$$$

  Mrv2115 07222212352D          

 22 24  0  0  0  0            999 V2000
   -2.1434   -0.4125    0.0000 O   0  0  0  0  0  0  0  0  0  0  0  0
   -1.4289    0.0000    0.0000 C   0  0  0  0  0  0  0  0  0  0  0  0
   -1.4289    0.8250    0.0000 C   0  0  0  0  0  0  0  0  0  0  0  0
   -2.1434    1.2375    0.0000 C   0  0  0  0  0  0  0  0  0  0  0  0
   -2.1434    2.0625    0.0000 C   0  0  0  0  0  0  0  0  0  0  0  0
   -1.4289    2.4750    0.0000 C   0  0  0  0  0  0  0  0  0  0  0  0
   -0.7145    2.0625    0.0000 C   0  0  0  0  0  0  0  0  0  0  0  0
   -0.7145    1.2375    0.0000 C   0  0  0  0  0  0  0  0  0  0  0  0
    0.0000    0.8250    0.0000 C   0  0  0  0  0  0  0  0  0  0  0  0
    0.0000    0.0000    0.0000 N   0  0  0  0  0  0  0  0  0  0  0  0
    0.7145   -0.4125    0.0000 N   0  0  0  0  0  0  0  0  0  0  0  0
    0.7145   -1.2375    0.0000 C   0  0  0  0  0  0  0  0  0  0  0  0
    1.3819   -1.7224    0.0000 N   0  0  0  0  0  0  0  0  0  0  0  0
    1.1270   -2.5070    0.0000 C   0  0  0  0  0  0  0  0  0  0  0  0
    1.6119   -3.1745    0.0000 C   0  0  0  0  0  0  0  0  0  0  0  0
    2.4324   -3.0882    0.0000 C   0  0  0  0  0  0  0  0  0  0  0  0
    2.9173   -3.7557    0.0000 C   0  0  0  0  0  0  0  0  0  0  0  0
    2.5817   -4.5094    0.0000 C   0  0  0  0  0  0  0  0  0  0  0  0
    1.7613   -4.5956    0.0000 C   0  0  0  0  0  0  0  0  0  0  0  0
    1.2763   -3.9282    0.0000 C   0  0  0  0  0  0  0  0  0  0  0  0
    0.3020   -2.5070    0.0000 C   0  0  0  0  0  0  0  0  0  0  0  0
    0.0470   -1.7224    0.0000 S   0  0  0  0  0  0  0  0  0  0  0  0
  1  2  2  0  0  0  0
  2  3  1  0  0  0  0
  3  4  4  0  0  0  0
  4  5  4  0  0  0  0
  5  6  4  0  0  0  0
  6  7  4  0  0  0  0
  7  8  4  0  0  0  0
  3  8  4  0  0  0  0
  8  9  1  0  0  0  0
 10  9  1  4  0  0  0
 10 11  2  0  0  0  0
 11 12  1  0  0  0  0
 12 13  4  0  0  0  0
 13 14  4  0  0  0  0
 14 15  1  0  0  0  0
 15 16  4  0  0  0  0
 16 17  4  0  0  0  0
 17 18  4  0  0  0  0
 18 19  4  0  0  0  0
 19 20  4  0  0  0  0
 15 20  4  0  0  0  0
 14 21  4  0  0  0  0
 21 22  4  0  0  0  0
 12 22  4  0  0  0  0
M  END
> <IC50(uM)>
0.11

> <Outcome>
1.0

> <BindingDB ID>
50971948

> <BindingDB MonomerID>
50398648

> <BindingDB Ligand Name>
CHEMBL2178104

> <Curation/DataSource>
ChEMBL

> <Article DOI>
10.1021/jm300630p

> <PMID>
22984987

> <Patent Number>
?

> <Authors>
Diao, Y; Lu, W; Jin, H; Zhu, J; Han, L; Xu, M; Gao, R; Shen, X; Zhao, Z; Liu, X; Xu, Y; Huang, J; Li, H

> <Link to Ligand in BindingDB>
http://www.bindingdb.org/bind/chemsearch/marvin/MolStructure.jsp?monomerid=50398648

> <Link to Ligand-Target Pair in BindingDB>
http://www.bindingdb.org/jsp/dbsearch/PrimarySearch_ki.jsp?energyterm=kJ/mole&tag=r21&monomerid=50398648&enzyme=Dihydroorotate+dehydrogenase&column=ki&startPg=0&Increment=50&submit=Search

> <PubChem CID>
76210602

> <PubChem SID>
163347672

$$$$

  Mrv2115 07222212352D          

 23 25  0  0  0  0            999 V2000
   -1.4289   -2.4750    0.0000 O   0  0  0  0  0  0  0  0  0  0  0  0
   -1.4289   -1.6500    0.0000 C   0  0  0  0  0  0  0  0  0  0  0  0
   -0.7145   -1.2375    0.0000 N   0  0  0  0  0  0  0  0  0  0  0  0
    0.0000   -1.6500    0.0000 C   0  0  0  0  0  0  0  0  0  0  0  0
    0.7145   -1.2375    0.0000 C   0  0  0  0  0  0  0  0  0  0  0  0
    1.4289   -1.6500    0.0000 C   0  0  0  0  0  0  0  0  0  0  0  0
    2.1434   -1.2375    0.0000 C   0  0  0  0  0  0  0  0  0  0  0  0
    2.8579   -1.6500    0.0000 C   0  0  0  0  0  0  0  0  0  0  0  0
    2.8579   -2.4750    0.0000 C   0  0  0  0  0  0  0  0  0  0  0  0
    2.1434   -2.8875    0.0000 C   0  0  0  0  0  0  0  0  0  0  0  0
    1.4289   -2.4750    0.0000 C   0  0  0  0  0  0  0  0  0  0  0  0
    0.7145   -0.4125    0.0000 C   0  0  0  0  0  0  0  0  0  0  0  0
    0.0000   -0.0000    0.0000 C   0  0  0  0  0  0  0  0  0  0  0  0
    0.0000    0.8250    0.0000 C   0  0  0  0  0  0  0  0  0  0  0  0
    0.7145    1.2375    0.0000 C   0  0  0  0  0  0  0  0  0  0  0  0
    1.4289    0.8250    0.0000 C   0  0  0  0  0  0  0  0  0  0  0  0
    1.4289   -0.0000    0.0000 C   0  0  0  0  0  0  0  0  0  0  0  0
   -2.1434   -1.2375    0.0000 C   0  0  0  0  0  0  0  0  0  0  0  0
   -2.8971   -1.5731    0.0000 N   0  0  0  0  0  0  0  0  0  0  0  0
   -3.4491   -0.9600    0.0000 O   0  0  0  0  0  0  0  0  0  0  0  0
   -3.0366   -0.2455    0.0000 N   0  0  0  0  0  0  0  0  0  0  0  0
   -2.2296   -0.4170    0.0000 C   0  0  0  0  0  0  0  0  0  0  0  0
   -1.6166    0.1350    0.0000 O   0  0  0  0  0  0  0  0  0  0  0  0
  1  2  2  0  0  0  0
  2  3  1  0  0  0  0
  3  4  1  0  0  0  0
  4  5  1  0  0  0  0
  5  6  1  0  0  0  0
  6  7  4  0  0  0  0
  7  8  4  0  0  0  0
  8  9  4  0  0  0  0
  9 10  4  0  0  0  0
 10 11  4  0  0  0  0
  6 11  4  0  0  0  0
  5 12  1  0  0  0  0
 12 13  4  0  0  0  0
 13 14  4  0  0  0  0
 14 15  4  0  0  0  0
 15 16  4  0  0  0  0
 16 17  4  0  0  0  0
 12 17  4  0  0  0  0
  2 18  1  0  0  0  0
 18 19  4  0  0  0  0
 19 20  4  0  0  0  0
 20 21  4  0  0  0  0
 21 22  4  0  0  0  0
 18 22  4  0  0  0  0
 22 23  1  0  0  0  0
M  END
> <IC50(uM)>
200.0

> <Outcome>
0.0

> <BindingDB ID>
51241004

> <BindingDB MonomerID>
50507735

> <BindingDB Ligand Name>
CHEMBL4464362

> <Curation/DataSource>
ChEMBL

> <Article DOI>
10.1016/j.ejmech.2018.11.044

> <PMID>
30529545

> <Patent Number>
?

> <Authors>
Pippione, AC; Sainas, S; Goyal, P; Fritzson, I; Cassiano, GC; Giraudo, A; Giorgis, M; Tavella, TA; Bagnati, R; Rolando, B; Caing-Carlsson, R; Costa, FTM; Andrade, CH; Al-Karadaghi, S; Boschi, D; Friemann, R; Lolli, ML

> <Link to Ligand in BindingDB>
http://www.bindingdb.org/bind/chemsearch/marvin/MolStructure.jsp?monomerid=50507735

> <Link to Ligand-Target Pair in BindingDB>
http://www.bindingdb.org/jsp/dbsearch/PrimarySearch_ki.jsp?energyterm=kJ/mole&tag=r21&monomerid=50507735&enzyme=Dihydroorotate+dehydrogenase&column=ki&startPg=0&Increment=50&submit=Search

> <PubChem CID>
155530572

> <PubChem SID>
440716320

$$$$

  Mrv2115 07222212352D          

 36 39  0  0  0  0            999 V2000
   -5.2708    1.4423    0.0000 C   0  0  0  0  0  0  0  0  0  0  0  0
   -5.6833    0.7279    0.0000 C   0  0  0  0  0  0  0  0  0  0  0  0
   -6.5083    0.7279    0.0000 C   0  0  0  0  0  0  0  0  0  0  0  0
   -6.9208    0.0134    0.0000 C   0  0  0  0  0  0  0  0  0  0  0  0
   -6.5083   -0.7011    0.0000 N   0  0  0  0  0  0  0  0  0  0  0  0
   -5.6833   -0.7011    0.0000 C   0  0  0  0  0  0  0  0  0  0  0  0
   -5.2708   -1.4156    0.0000 C   0  0  0  0  0  0  0  0  0  0  0  0
   -5.2708    0.0134    0.0000 C   0  0  0  0  0  0  0  0  0  0  0  0
   -4.4458    0.0134    0.0000 N   0  0  0  0  0  0  0  0  0  0  0  0
   -4.0333   -0.7011    0.0000 C   0  0  0  0  0  0  0  0  0  0  0  0
   -4.4458   -1.4156    0.0000 O   0  0  0  0  0  0  0  0  0  0  0  0
   -3.2083   -0.7011    0.0000 C   0  0  0  0  0  0  0  0  0  0  0  0
   -2.7958    0.0134    0.0000 C   0  0  0  0  0  0  0  0  0  0  0  0
   -1.9708    0.0134    0.0000 C   0  0  0  0  0  0  0  0  0  0  0  0
   -1.5583    0.7279    0.0000 F   0  0  0  0  0  0  0  0  0  0  0  0
   -1.5583   -0.7011    0.0000 C   0  0  0  0  0  0  0  0  0  0  0  0
   -0.7333   -0.7011    0.0000 N   0  0  0  0  0  0  0  0  0  0  0  0
   -0.2483   -1.3685    0.0000 N   0  0  0  0  0  0  0  0  0  0  0  0
    0.5363   -1.1136    0.0000 C   0  0  0  0  0  0  0  0  0  0  0  0
    0.5363   -0.2886    0.0000 N   0  0  0  0  0  0  0  0  0  0  0  0
   -0.2483   -0.0336    0.0000 C   0  0  0  0  0  0  0  0  0  0  0  0
   -0.5033    0.7510    0.0000 O   0  0  0  0  0  0  0  0  0  0  0  0
    1.1813    0.2258    0.0000 C   0  0  0  0  0  0  0  0  0  0  0  0
    1.9856    0.0422    0.0000 C   0  0  0  0  0  0  0  0  0  0  0  0
    2.3436   -0.7011    0.0000 C   0  0  0  0  0  0  0  0  0  0  0  0
    1.9856   -1.4444    0.0000 O   0  0  0  0  0  0  0  0  0  0  0  0
    1.1813   -1.6280    0.0000 C   0  0  0  0  0  0  0  0  0  0  0  0
   -1.9708   -1.4156    0.0000 C   0  0  0  0  0  0  0  0  0  0  0  0
   -2.7958   -1.4156    0.0000 C   0  0  0  0  0  0  0  0  0  0  0  0
   -3.2083   -2.1300    0.0000 O   0  0  0  0  0  0  0  0  0  0  0  0
   -2.7958   -2.8445    0.0000 C   0  0  0  0  0  0  0  0  0  0  0  0
   -1.9708   -2.8445    0.0000 C   0  0  0  0  0  0  0  0  0  0  0  0
   -3.2083   -3.5590    0.0000 C   0  0  0  0  0  0  0  0  0  0  0  0
   -3.9227   -3.1465    0.0000 F   0  0  0  0  0  0  0  0  0  0  0  0
   -2.4938   -3.9715    0.0000 F   0  0  0  0  0  0  0  0  0  0  0  0
   -3.6208   -4.2734    0.0000 F   0  0  0  0  0  0  0  0  0  0  0  0
  1  2  1  0  0  0  0
  2  3  4  0  0  0  0
  3  4  4  0  0  0  0
  4  5  4  0  0  0  0
  5  6  4  0  0  0  0
  6  7  1  0  0  0  0
  6  8  4  0  0  0  0
  2  8  4  0  0  0  0
  8  9  1  0  0  0  0
  9 10  1  0  0  0  0
 10 11  2  0  0  0  0
 10 12  1  0  0  0  0
 12 13  4  0  0  0  0
 13 14  4  0  0  0  0
 14 15  1  0  0  0  0
 14 16  4  0  0  0  0
 16 17  1  0  0  0  0
 17 18  4  0  0  0  0
 18 19  4  0  0  0  0
 19 20  4  0  0  0  0
 20 21  4  0  0  0  0
 17 21  4  0  0  0  0
 21 22  2  0  0  0  0
 20 23  1  0  0  0  0
 23 24  1  0  0  0  0
 24 25  1  0  0  0  0
 25 26  1  0  0  0  0
 26 27  1  0  0  0  0
 19 27  1  0  0  0  0
 16 28  4  0  0  0  0
 28 29  4  0  0  0  0
 12 29  4  0  0  0  0
 29 30  1  0  0  0  0
 30 31  1  0  0  0  0
 31 32  1  0  0  0  0
 31 33  1  0  0  0  0
 33 34  1  0  0  0  0
 33 35  1  0  0  0  0
 33 36  1  0  0  0  0
M  END
> <IC50(uM)>
0.25

> <Outcome>
1.0

> <BindingDB ID>
1020644

> <BindingDB MonomerID>
490573

> <BindingDB Ligand Name>
N-(2,4-dimethylpyridin-3-yl)-5-fluoro-4-(3-oxo-6,7-dihydro-3H,5H-[1,2,4]triazolo[3,4-c]-[1,4]oxazepin-2(9H)-yl)-2-{[(2S)-1,1,1-trifluoropropan-2-yl]oxy}benzamide::US10968216, Example 241

> <Curation/DataSource>
US Patent

> <Article DOI>
?

> <PMID>
?

> <Patent Number>
US10968216

> <Authors>
Gradl, SN; Nguyen, D; Eis, K; Gunther, J; Stellfeld, T; Janzer, A; Christian, S; Mueller, T; Sheikh, SE; Zhou, HJ; Zhao, C; Sykes, DB; Ferrara, SJ; Liu, K; Herbert, SA; Merz, C; Niehues, M; Nising, CF; Schafer, M; Zimmermann, K; Knablein, J; Thede, K; Faupel, T

> <Link to Ligand in BindingDB>
http://www.bindingdb.org/bind/chemsearch/marvin/MolStructure.jsp?monomerid=490573

> <Link to Ligand-Target Pair in BindingDB>
http://www.bindingdb.org/jsp/dbsearch/PrimarySearch_ki.jsp?energyterm=kJ/mole&tag=r21&monomerid=490573&enzyme=Dihydroorotate+dehydrogenase&column=ki&startPg=0&Increment=50&submit=Search

> <PubChem CID>
134473994

> <PubChem SID>
447117299

$$$$

  Mrv2115 07222212352D          

 32 36  0  0  0  0            999 V2000
    7.5931   -5.4773    0.0000 C   0  0  0  0  0  0  0  0  0  0  0  0
    6.7861   -5.3057    0.0000 O   0  0  0  0  0  0  0  0  0  0  0  0
    6.5311   -4.5211    0.0000 C   0  0  0  0  0  0  0  0  0  0  0  0
    5.7242   -4.3496    0.0000 C   0  0  0  0  0  0  0  0  0  0  0  0
    5.1721   -4.9627    0.0000 C   0  0  0  0  0  0  0  0  0  0  0  0
    4.3652   -4.7911    0.0000 C   0  0  0  0  0  0  0  0  0  0  0  0
    4.1102   -4.0065    0.0000 C   0  0  0  0  0  0  0  0  0  0  0  0
    4.6623   -3.3934    0.0000 C   0  0  0  0  0  0  0  0  0  0  0  0
    4.4073   -2.6088    0.0000 C   0  0  0  0  0  0  0  0  0  0  0  0
    3.6004   -2.4373    0.0000 C   0  0  0  0  0  0  0  0  0  0  0  0
    3.0483   -3.0504    0.0000 F   0  0  0  0  0  0  0  0  0  0  0  0
    3.3454   -1.6527    0.0000 C   0  0  0  0  0  0  0  0  0  0  0  0
    3.8974   -1.0396    0.0000 C   0  0  0  0  0  0  0  0  0  0  0  0
    3.6425   -0.2549    0.0000 N   0  0  0  0  0  0  0  0  0  0  0  0
    4.1274    0.4125    0.0000 N   0  0  0  0  0  0  0  0  0  0  0  0
    3.6425    1.0799    0.0000 N   0  0  0  0  0  0  0  0  0  0  0  0
    2.8579    0.8250    0.0000 C   0  0  0  0  0  0  0  0  0  0  0  0
    2.8579    0.0000    0.0000 C   0  0  0  0  0  0  0  0  0  0  0  0
    2.1434   -0.4125    0.0000 C   0  0  0  0  0  0  0  0  0  0  0  0
    2.1434   -1.2375    0.0000 O   0  0  0  0  0  0  0  0  0  0  0  0
    1.4289   -0.0000    0.0000 C   0  0  0  0  0  0  0  0  0  0  0  0
    0.7145   -0.4125    0.0000 C   0  0  0  0  0  0  0  0  0  0  0  0
   -0.0000    0.0000    0.0000 C   0  0  0  0  0  0  0  0  0  0  0  0
    0.0000    0.8250    0.0000 C   0  0  0  0  0  0  0  0  0  0  0  0
    0.7145    1.2375    0.0000 C   0  0  0  0  0  0  0  0  0  0  0  0
    1.4289    0.8250    0.0000 C   0  0  0  0  0  0  0  0  0  0  0  0
    2.1434    1.2375    0.0000 C   0  0  0  0  0  0  0  0  0  0  0  0
    2.1434    2.0625    0.0000 O   0  0  0  0  0  0  0  0  0  0  0  0
    4.7044   -1.2111    0.0000 C   0  0  0  0  0  0  0  0  0  0  0  0
    4.9594   -1.9957    0.0000 C   0  0  0  0  0  0  0  0  0  0  0  0
    5.7663   -2.1672    0.0000 F   0  0  0  0  0  0  0  0  0  0  0  0
    5.4692   -3.5650    0.0000 C   0  0  0  0  0  0  0  0  0  0  0  0
  1  2  1  0  0  0  0
  2  3  1  0  0  0  0
  3  4  1  0  0  0  0
  4  5  4  0  0  0  0
  5  6  4  0  0  0  0
  6  7  4  0  0  0  0
  7  8  4  0  0  0  0
  8  9  1  0  0  0  0
  9 10  4  0  0  0  0
 10 11  1  0  0  0  0
 10 12  4  0  0  0  0
 12 13  4  0  0  0  0
 13 14  1  0  0  0  0
 14 15  4  0  0  0  0
 15 16  4  0  0  0  0
 16 17  4  0  0  0  0
 17 18  4  0  0  0  0
 14 18  4  0  0  0  0
 18 19  1  0  0  0  0
 19 20  2  0  0  0  0
 19 21  1  0  0  0  0
 21 22  4  0  0  0  0
 22 23  4  0  0  0  0
 23 24  4  0  0  0  0
 24 25  4  0  0  0  0
 25 26  4  0  0  0  0
 21 26  4  0  0  0  0
 26 27  1  0  0  0  0
 17 27  1  0  0  0  0
 27 28  2  0  0  0  0
 13 29  4  0  0  0  0
 29 30  4  0  0  0  0
  9 30  4  0  0  0  0
 30 31  1  0  0  0  0
  8 32  4  0  0  0  0
  4 32  4  0  0  0  0
M  END
> <IC50(uM)>
0.0016

> <Outcome>
1.0

> <BindingDB ID>
51338203

> <BindingDB MonomerID>
50541677

> <BindingDB Ligand Name>
CHEMBL4647629

> <Curation/DataSource>
ChEMBL

> <Article DOI>
10.1021/acs.jmedchem.0c00512

> <PMID>
32496056

> <Patent Number>
?

> <Authors>
Zuo, Z; Liu, X; Qian, X; Zeng, T; Sang, N; Liu, H; Zhou, Y; Tao, L; Zhou, X; Su, N; Yu, Y; Chen, Q; Luo, Y; Zhao, Y

> <Link to Ligand in BindingDB>
http://www.bindingdb.org/bind/chemsearch/marvin/MolStructure.jsp?monomerid=50541677

> <Link to Ligand-Target Pair in BindingDB>
http://www.bindingdb.org/jsp/dbsearch/PrimarySearch_ki.jsp?energyterm=kJ/mole&tag=r21&monomerid=50541677&enzyme=Dihydroorotate+dehydrogenase&column=ki&startPg=0&Increment=50&submit=Search

> <PubChem CID>
156021156

> <PubChem SID>
442143240

$$$$

  Mrv2115 07222212352D          

 29 31  0  0  0  0            999 V2000
    7.8592    1.2375    0.0000 O   0  0  0  0  0  0  0  0  0  0  0  0
    7.8592    0.4125    0.0000 C   0  0  0  0  0  0  0  0  0  0  0  0
    7.1447    0.0000    0.0000 C   0  0  0  0  0  0  0  0  0  0  0  0
    6.4302    0.4125    0.0000 C   0  0  0  0  0  0  0  0  0  0  0  0
    5.7158    0.0000    0.0000 N   0  0  0  0  0  0  0  0  0  0  0  0
    5.0013    0.4125    0.0000 C   0  0  0  0  0  0  0  0  0  0  0  0
    5.0013    1.2375    0.0000 O   0  0  0  0  0  0  0  0  0  0  0  0
    4.2868    0.0000    0.0000 C   0  0  0  0  0  0  0  0  0  0  0  0
    4.2868   -0.8250    0.0000 C   0  0  0  0  0  0  0  0  0  0  0  0
    3.5724   -1.2375    0.0000 C   0  0  0  0  0  0  0  0  0  0  0  0
    2.8579   -0.8250    0.0000 C   0  0  0  0  0  0  0  0  0  0  0  0
    2.1434   -1.2375    0.0000 O   0  0  0  0  0  0  0  0  0  0  0  0
    1.4289   -0.8250    0.0000 C   0  0  0  0  0  0  0  0  0  0  0  0
    0.7145   -0.4125    0.0000 F   0  0  0  0  0  0  0  0  0  0  0  0
    1.0164   -1.5395    0.0000 F   0  0  0  0  0  0  0  0  0  0  0  0
    1.8414   -0.1105    0.0000 F   0  0  0  0  0  0  0  0  0  0  0  0
    2.8579    0.0000    0.0000 C   0  0  0  0  0  0  0  0  0  0  0  0
    3.5724    0.4125    0.0000 C   0  0  0  0  0  0  0  0  0  0  0  0
    8.5737    0.0000    0.0000 N   0  0  0  0  0  0  0  0  0  0  0  0
    9.2881    0.4125    0.0000 C   0  0  0  0  0  0  0  0  0  0  0  0
    9.2881    1.2375    0.0000 C   0  0  0  0  0  0  0  0  0  0  0  0
   10.0026    1.6500    0.0000 C   0  0  0  0  0  0  0  0  0  0  0  0
   10.7171    1.2375    0.0000 C   0  0  0  0  0  0  0  0  0  0  0  0
   10.7171    0.4125    0.0000 C   0  0  0  0  0  0  0  0  0  0  0  0
   11.4315    0.0000    0.0000 C   0  0  0  0  0  0  0  0  0  0  0  0
   11.4315   -0.8250    0.0000 C   0  0  0  0  0  0  0  0  0  0  0  0
   10.7171   -1.2375    0.0000 C   0  0  0  0  0  0  0  0  0  0  0  0
   10.0026   -0.8250    0.0000 C   0  0  0  0  0  0  0  0  0  0  0  0
   10.0026    0.0000    0.0000 C   0  0  0  0  0  0  0  0  0  0  0  0
  1  2  2  0  0  0  0
  2  3  1  0  0  0  0
  3  4  1  0  0  0  0
  4  5  1  0  0  0  0
  5  6  1  0  0  0  0
  6  7  2  0  0  0  0
  6  8  1  0  0  0  0
  8  9  4  0  0  0  0
  9 10  4  0  0  0  0
 10 11  4  0  0  0  0
 11 12  1  0  0  0  0
 12 13  1  0  0  0  0
 13 14  1  0  0  0  0
 13 15  1  0  0  0  0
 13 16  1  0  0  0  0
 11 17  4  0  0  0  0
 17 18  4  0  0  0  0
  8 18  4  0  0  0  0
  2 19  1  0  0  0  0
 19 20  1  0  0  0  0
 20 21  1  0  0  0  0
 21 22  1  0  0  0  0
 22 23  1  0  0  0  0
 23 24  1  0  0  0  0
 24 25  4  0  0  0  0
 25 26  4  0  0  0  0
 26 27  4  0  0  0  0
 27 28  4  0  0  0  0
 28 29  4  0  0  0  0
 24 29  4  0  0  0  0
 20 29  1  0  0  0  0
M  END
> <IC50(uM)>
0.56

> <Outcome>
1.0

> <BindingDB ID>
50527793

> <BindingDB MonomerID>
50201636

> <BindingDB Ligand Name>
CHEMBL3184132

> <Curation/DataSource>
ChEMBL

> <Article DOI>
10.1021/acsmedchemlett.6b00316

> <PMID>
27994748

> <Patent Number>
?

> <Authors>
Lewis, TA; Sykes, DB; Law, JM; Mu??oz, B; Rustiguel, JK; Nonato, MC; Scadden, DT; Schreiber, SL

> <Link to Ligand in BindingDB>
http://www.bindingdb.org/bind/chemsearch/marvin/MolStructure.jsp?monomerid=50201636

> <Link to Ligand-Target Pair in BindingDB>
http://www.bindingdb.org/jsp/dbsearch/PrimarySearch_ki.jsp?energyterm=kJ/mole&tag=r21&monomerid=50201636&enzyme=Dihydroorotate+dehydrogenase&column=ki&startPg=0&Increment=50&submit=Search

> <PubChem CID>
71768304

> <PubChem SID>
375979424

$$$$

  Mrv2115 07222212352D          

 24 26  0  0  0  0            999 V2000
    6.3909   -2.8867    0.0000 C   0  0  0  0  0  0  0  0  0  0  0  0
    7.1054   -3.2992    0.0000 C   0  0  0  0  0  0  0  0  0  0  0  0
    7.8198   -2.8867    0.0000 C   0  0  0  0  0  0  0  0  0  0  0  0
    8.5343   -3.2992    0.0000 C   0  0  0  0  0  0  0  0  0  0  0  0
    9.2488   -2.8867    0.0000 O   0  0  0  0  0  0  0  0  0  0  0  0
    9.9633   -3.2992    0.0000 C   0  0  0  0  0  0  0  0  0  0  0  0
    9.9633   -4.1242    0.0000 O   0  0  0  0  0  0  0  0  0  0  0  0
   10.6777   -2.8867    0.0000 C   0  0  0  0  0  0  0  0  0  0  0  0
   10.7640   -2.0662    0.0000 C   0  0  0  0  0  0  0  0  0  0  0  0
   10.1509   -1.5142    0.0000 O   0  0  0  0  0  0  0  0  0  0  0  0
   11.5709   -1.8947    0.0000 C   0  0  0  0  0  0  0  0  0  0  0  0
   11.9834   -2.6091    0.0000 S   0  0  0  0  0  0  0  0  0  0  0  0
   11.4314   -3.2222    0.0000 C   0  0  0  0  0  0  0  0  0  0  0  0
   11.6029   -4.0292    0.0000 N   0  0  0  0  0  0  0  0  0  0  0  0
   12.3876   -4.2841    0.0000 C   0  0  0  0  0  0  0  0  0  0  0  0
   13.0006   -3.7321    0.0000 C   0  0  0  0  0  0  0  0  0  0  0  0
   13.7853   -3.9870    0.0000 C   0  0  0  0  0  0  0  0  0  0  0  0
   13.9568   -4.7940    0.0000 C   0  0  0  0  0  0  0  0  0  0  0  0
   14.7414   -5.0490    0.0000 C   0  0  0  0  0  0  0  0  0  0  0  0
   14.9129   -5.8559    0.0000 C   0  0  0  0  0  0  0  0  0  0  0  0
   14.2999   -6.4080    0.0000 C   0  0  0  0  0  0  0  0  0  0  0  0
   13.5152   -6.1530    0.0000 C   0  0  0  0  0  0  0  0  0  0  0  0
   13.3437   -5.3461    0.0000 C   0  0  0  0  0  0  0  0  0  0  0  0
   12.5591   -5.0911    0.0000 C   0  0  0  0  0  0  0  0  0  0  0  0
  1  2  1  0  0  0  0
  2  3  1  0  0  0  0
  3  4  1  0  0  0  0
  4  5  1  0  0  0  0
  5  6  1  0  0  0  0
  6  7  2  0  0  0  0
  6  8  1  0  0  0  0
  8  9  4  0  0  0  0
  9 10  1  0  0  0  0
  9 11  4  0  0  0  0
 11 12  4  0  0  0  0
 12 13  4  0  0  0  0
  8 13  4  0  0  0  0
 13 14  1  0  0  0  0
 14 15  1  0  0  0  0
 15 16  4  0  0  0  0
 16 17  4  0  0  0  0
 17 18  4  0  0  0  0
 18 19  4  0  0  0  0
 19 20  4  0  0  0  0
 20 21  4  0  0  0  0
 21 22  4  0  0  0  0
 22 23  4  0  0  0  0
 18 23  4  0  0  0  0
 23 24  4  0  0  0  0
 15 24  4  0  0  0  0
M  END
> <IC50(uM)>
50.0

> <Outcome>
0.0

> <BindingDB ID>
51079151

> <BindingDB MonomerID>
50441259

> <BindingDB Ligand Name>
CHEMBL2431490

> <Curation/DataSource>
ChEMBL

> <Article DOI>
10.1021/jm400938g

> <PMID>
24073986

> <Patent Number>
?

> <Authors>
Xu, M; Zhu, J; Diao, Y; Zhou, H; Ren, X; Sun, D; Huang, J; Han, D; Zhao, Z; Zhu, L; Xu, Y; Li, H

> <Link to Ligand in BindingDB>
http://www.bindingdb.org/bind/chemsearch/marvin/MolStructure.jsp?monomerid=50441259

> <Link to Ligand-Target Pair in BindingDB>
http://www.bindingdb.org/jsp/dbsearch/PrimarySearch_ki.jsp?energyterm=kJ/mole&tag=r21&monomerid=50441259&enzyme=Dihydroorotate+dehydrogenase&column=ki&startPg=0&Increment=50&submit=Search

> <PubChem CID>
91898820

> <PubChem SID>
175453576

$$$$

  Mrv2115 07222212352D          

 20 22  0  0  0  0            999 V2000
    1.4289   -4.1250    0.0000 F   0  0  0  0  0  0  0  0  0  0  0  0
    0.7145   -3.7125    0.0000 C   0  0  0  0  0  0  0  0  0  0  0  0
    0.0000   -4.1250    0.0000 C   0  0  0  0  0  0  0  0  0  0  0  0
   -0.7145   -3.7125    0.0000 C   0  0  0  0  0  0  0  0  0  0  0  0
   -1.4289   -4.1250    0.0000 I   0  0  0  0  0  0  0  0  0  0  0  0
   -0.7145   -2.8875    0.0000 C   0  0  0  0  0  0  0  0  0  0  0  0
    0.0000   -2.4750    0.0000 C   0  0  0  0  0  0  0  0  0  0  0  0
    0.7145   -2.8875    0.0000 C   0  0  0  0  0  0  0  0  0  0  0  0
    1.4289   -2.4750    0.0000 N   0  0  0  0  0  0  0  0  0  0  0  0
    1.4289   -1.6500    0.0000 C   0  0  0  0  0  0  0  0  0  0  0  0
    0.7145   -1.2375    0.0000 C   0  0  0  0  0  0  0  0  0  0  0  0
    0.7145   -0.4125    0.0000 C   0  0  0  0  0  0  0  0  0  0  0  0
    1.4289    0.0000    0.0000 N   0  0  0  0  0  0  0  0  0  0  0  0
    2.1434   -0.4125    0.0000 C   0  0  0  0  0  0  0  0  0  0  0  0
    2.8579    0.0000    0.0000 C   0  0  0  0  0  0  0  0  0  0  0  0
    3.5724   -0.4125    0.0000 C   0  0  0  0  0  0  0  0  0  0  0  0
    4.2868   -0.0000    0.0000 Cl  0  0  0  0  0  0  0  0  0  0  0  0
    3.5724   -1.2375    0.0000 C   0  0  0  0  0  0  0  0  0  0  0  0
    2.8579   -1.6500    0.0000 C   0  0  0  0  0  0  0  0  0  0  0  0
    2.1434   -1.2375    0.0000 C   0  0  0  0  0  0  0  0  0  0  0  0
  1  2  1  0  0  0  0
  2  3  4  0  0  0  0
  3  4  4  0  0  0  0
  4  5  1  0  0  0  0
  4  6  4  0  0  0  0
  6  7  4  0  0  0  0
  7  8  4  0  0  0  0
  2  8  4  0  0  0  0
  8  9  1  0  0  0  0
  9 10  1  0  0  0  0
 10 11  4  0  0  0  0
 11 12  4  0  0  0  0
 12 13  4  0  0  0  0
 13 14  4  0  0  0  0
 14 15  4  0  0  0  0
 15 16  4  0  0  0  0
 16 17  1  0  0  0  0
 16 18  4  0  0  0  0
 18 19  4  0  0  0  0
 19 20  4  0  0  0  0
 10 20  4  0  0  0  0
 14 20  4  0  0  0  0
M  END
> <IC50(uM)>
30.0

> <Outcome>
0.0

> <BindingDB ID>
248279

> <BindingDB MonomerID>
120364

> <BindingDB Ligand Name>
US8703811, 4

> <Curation/DataSource>
US Patent

> <Article DOI>
?

> <PMID>
?

> <Patent Number>
US8703811

> <Authors>
Bastos, C; Booker, ML; Celatka, CA; Clardy, JC; Cortese, J; Patel, VP; Skerlj, R; Wiegand, RC; Wirth, DF

> <Link to Ligand in BindingDB>
http://www.bindingdb.org/bind/chemsearch/marvin/MolStructure.jsp?monomerid=120364

> <Link to Ligand-Target Pair in BindingDB>
http://www.bindingdb.org/jsp/dbsearch/PrimarySearch_ki.jsp?energyterm=kJ/mole&tag=r21&monomerid=120364&enzyme=Dihydroorotate+dehydrogenase&column=ki&startPg=0&Increment=50&submit=Search

> <PubChem CID>
2823698

> <PubChem SID>
220231158

$$$$

  Mrv2115 07222212352D          

 35 37  0  0  0  0            999 V2000
    2.1434   -3.7125    0.0000 C   0  0  0  0  0  0  0  0  0  0  0  0
    2.8579   -4.1250    0.0000 C   0  0  0  0  0  0  0  0  0  0  0  0
    3.5724   -3.7125    0.0000 C   0  0  0  0  0  0  0  0  0  0  0  0
    4.2868   -4.1250    0.0000 C   0  0  0  0  0  0  0  0  0  0  0  0
    4.2868   -4.9500    0.0000 C   0  0  0  0  0  0  0  0  0  0  0  0
    5.0013   -3.7125    0.0000 O   0  0  0  0  0  0  0  0  0  0  0  0
    5.0013   -2.8875    0.0000 C   0  0  0  0  0  0  0  0  0  0  0  0
    4.2868   -2.4750    0.0000 C   0  0  0  0  0  0  0  0  0  0  0  0
    4.2868   -1.6500    0.0000 C   0  0  0  0  0  0  0  0  0  0  0  0
    3.5724   -1.2375    0.0000 N   0  0  0  0  0  0  0  0  0  0  0  0
    2.8187   -1.5731    0.0000 N   0  0  0  0  0  0  0  0  0  0  0  0
    2.2666   -0.9600    0.0000 C   0  0  0  0  0  0  0  0  0  0  0  0
    1.4462   -1.0462    0.0000 C   0  0  0  0  0  0  0  0  0  0  0  0
    1.1106   -1.7999    0.0000 C   0  0  0  0  0  0  0  0  0  0  0  0
    2.6791   -0.2455    0.0000 N   0  0  0  0  0  0  0  0  0  0  0  0
    2.3436    0.5082    0.0000 C   0  0  0  0  0  0  0  0  0  0  0  0
    3.4861   -0.4170    0.0000 C   0  0  0  0  0  0  0  0  0  0  0  0
    4.0992    0.1350    0.0000 O   0  0  0  0  0  0  0  0  0  0  0  0
    5.0013   -1.2375    0.0000 C   0  0  0  0  0  0  0  0  0  0  0  0
    5.0013   -0.4125    0.0000 F   0  0  0  0  0  0  0  0  0  0  0  0
    5.7158   -1.6500    0.0000 C   0  0  0  0  0  0  0  0  0  0  0  0
    5.7158   -2.4750    0.0000 C   0  0  0  0  0  0  0  0  0  0  0  0
    6.4302   -2.8875    0.0000 C   0  0  0  0  0  0  0  0  0  0  0  0
    6.4302   -3.7125    0.0000 O   0  0  0  0  0  0  0  0  0  0  0  0
    7.1447   -2.4750    0.0000 N   0  0  0  0  0  0  0  0  0  0  0  0
    7.8592   -2.8875    0.0000 C   0  0  0  0  0  0  0  0  0  0  0  0
    8.5737   -2.4750    0.0000 C   0  0  0  0  0  0  0  0  0  0  0  0
    9.2881   -2.8875    0.0000 C   0  0  0  0  0  0  0  0  0  0  0  0
    9.2881   -3.7125    0.0000 C   0  0  0  0  0  0  0  0  0  0  0  0
   10.0026   -4.1250    0.0000 C   0  0  0  0  0  0  0  0  0  0  0  0
   10.7171   -4.5375    0.0000 F   0  0  0  0  0  0  0  0  0  0  0  0
    9.5901   -4.8395    0.0000 F   0  0  0  0  0  0  0  0  0  0  0  0
   10.4151   -3.4105    0.0000 F   0  0  0  0  0  0  0  0  0  0  0  0
    8.5737   -4.1250    0.0000 C   0  0  0  0  0  0  0  0  0  0  0  0
    7.8592   -3.7125    0.0000 C   0  0  0  0  0  0  0  0  0  0  0  0
  1  2  1  0  0  0  0
  2  3  1  0  0  0  0
  3  4  1  0  0  0  0
  4  5  1  0  0  0  0
  4  6  1  0  0  0  0
  6  7  1  0  0  0  0
  7  8  4  0  0  0  0
  8  9  4  0  0  0  0
  9 10  1  0  0  0  0
 10 11  4  0  0  0  0
 11 12  4  0  0  0  0
 12 13  1  0  0  0  0
 13 14  1  0  0  0  0
 12 15  4  0  0  0  0
 15 16  1  0  0  0  0
 15 17  4  0  0  0  0
 10 17  4  0  0  0  0
 17 18  2  0  0  0  0
  9 19  4  0  0  0  0
 19 20  1  0  0  0  0
 19 21  4  0  0  0  0
 21 22  4  0  0  0  0
  7 22  4  0  0  0  0
 22 23  1  0  0  0  0
 23 24  2  0  0  0  0
 23 25  1  0  0  0  0
 25 26  1  0  0  0  0
 26 27  4  0  0  0  0
 27 28  4  0  0  0  0
 28 29  4  0  0  0  0
 29 30  1  0  0  0  0
 30 31  1  0  0  0  0
 30 32  1  0  0  0  0
 30 33  1  0  0  0  0
 29 34  4  0  0  0  0
 34 35  4  0  0  0  0
 26 35  4  0  0  0  0
M  END
> <IC50(uM)>
0.2858

> <Outcome>
1.0

> <BindingDB ID>
972474; 1098628; 1098627; 972473

> <BindingDB MonomerID>
470363

> <BindingDB Ligand Name>
4-(3-ethyl-4-methyl-5-oxo-4,5-dihydro-1H-1,2,4-triazol-1-yl)-5-fluoro-2-[(2S)-pentan-2-yloxy]-N-[4-(trifluoromethyl)phenyl]benzamide::US10815215, Example 22; 4-(3-ethyl-4-methyl-5-oxo-4,5-dihydro-1H-1,2,4-triazol-1-yl)-5-fluoro-2-[(2S)-pentan-2-yloxy]-N-[4-(trifluoromethyl)phenyl]benzamide::US10815215, Example 22::US11130745, Example 22

> <Curation/DataSource>
US Patent

> <Article DOI>
?

> <PMID>
?

> <Patent Number>
US10815215; US11130745

> <Authors>
Gradl, SN; Nguyen, D; Eis, K; Gunther, J; Stellfeld, T; Janzer, A; Christian, S; Muller, T; Sheikh, SE; Zhou, HJ; Zhao, C; Sykes, DB; Ferrara, SJ; Liu, K; Krober, M; Merz, C; Niehues, M; Schafer, M; Zimmermann, K; Nising, CF; Gradl, SN; Nguyen, D; Eis, K; Gunther, J; Stellfeld, T; Janzer, A; Christian, S; Muller, T; Sheikh, SE; Sykes, DB; Ferrara, SJ; Krober, M; Merz, C; Niehues, M; Schafer, M; Zimmermann, K; Nising, CF

> <Link to Ligand in BindingDB>
http://www.bindingdb.org/bind/chemsearch/marvin/MolStructure.jsp?monomerid=470363

> <Link to Ligand-Target Pair in BindingDB>
http://www.bindingdb.org/jsp/dbsearch/PrimarySearch_ki.jsp?energyterm=kJ/mole&tag=r21&monomerid=470363&enzyme=Dihydroorotate+dehydrogenase&column=ki&startPg=0&Increment=50&submit=Search

> <PubChem CID>
134470043

> <PubChem SID>
441609540

$$$$

  Mrv2115 07222212352D          

 34 38  0  0  0  0            999 V2000
    4.0668    2.3479    0.0000 C   0  0  0  0  0  0  0  0  0  0  0  0
    3.3523    1.9354    0.0000 C   0  0  0  0  0  0  0  0  0  0  0  0
    3.3523    1.1104    0.0000 C   0  0  0  0  0  0  0  0  0  0  0  0
    2.6378    0.6979    0.0000 C   0  0  0  0  0  0  0  0  0  0  0  0
    2.6378   -0.1271    0.0000 C   0  0  0  0  0  0  0  0  0  0  0  0
    1.9233   -0.5396    0.0000 O   0  0  0  0  0  0  0  0  0  0  0  0
    3.3523   -0.5396    0.0000 O   0  0  0  0  0  0  0  0  0  0  0  0
    1.9233    1.1104    0.0000 C   0  0  0  0  0  0  0  0  0  0  0  0
    1.1387    0.8555    0.0000 N   0  0  0  0  0  0  0  0  0  0  0  0
    0.6538    1.5229    0.0000 C   0  0  0  0  0  0  0  0  0  0  0  0
   -0.1712    1.5229    0.0000 C   0  0  0  0  0  0  0  0  0  0  0  0
   -0.5837    0.8085    0.0000 C   0  0  0  0  0  0  0  0  0  0  0  0
   -1.4087    0.8085    0.0000 C   0  0  0  0  0  0  0  0  0  0  0  0
   -1.8212    1.5229    0.0000 C   0  0  0  0  0  0  0  0  0  0  0  0
   -2.6462    1.5229    0.0000 C   0  0  0  0  0  0  0  0  0  0  0  0
   -3.0587    0.8085    0.0000 C   0  0  0  0  0  0  0  0  0  0  0  0
   -3.8837    0.8085    0.0000 C   0  0  0  0  0  0  0  0  0  0  0  0
   -4.2962    1.5229    0.0000 C   0  0  0  0  0  0  0  0  0  0  0  0
   -5.1212    1.5229    0.0000 O   0  0  0  0  0  0  0  0  0  0  0  0
   -5.5337    2.2374    0.0000 C   0  0  0  0  0  0  0  0  0  0  0  0
   -6.3587    2.2374    0.0000 C   0  0  0  0  0  0  0  0  0  0  0  0
   -6.7712    2.9519    0.0000 C   0  0  0  0  0  0  0  0  0  0  0  0
   -6.3587    3.6664    0.0000 C   0  0  0  0  0  0  0  0  0  0  0  0
   -6.7712    4.3808    0.0000 C   0  0  0  0  0  0  0  0  0  0  0  0
   -7.5962    4.3808    0.0000 O   0  0  0  0  0  0  0  0  0  0  0  0
   -5.5337    3.6664    0.0000 C   0  0  0  0  0  0  0  0  0  0  0  0
   -5.1212    2.9519    0.0000 C   0  0  0  0  0  0  0  0  0  0  0  0
   -3.8837    2.2374    0.0000 C   0  0  0  0  0  0  0  0  0  0  0  0
   -3.0587    2.2374    0.0000 C   0  0  0  0  0  0  0  0  0  0  0  0
   -1.4087    2.2374    0.0000 C   0  0  0  0  0  0  0  0  0  0  0  0
   -0.5837    2.2374    0.0000 C   0  0  0  0  0  0  0  0  0  0  0  0
    1.1387    2.1904    0.0000 N   0  0  0  0  0  0  0  0  0  0  0  0
    1.9233    1.9354    0.0000 C   0  0  0  0  0  0  0  0  0  0  0  0
    2.6378    2.3479    0.0000 C   0  0  0  0  0  0  0  0  0  0  0  0
  1  2  1  0  0  0  0
  2  3  4  0  0  0  0
  3  4  4  0  0  0  0
  4  5  1  0  0  0  0
  5  6  2  0  0  0  0
  5  7  1  0  0  0  0
  4  8  4  0  0  0  0
  8  9  4  0  0  0  0
  9 10  4  0  0  0  0
 10 11  1  0  0  0  0
 11 12  4  0  0  0  0
 12 13  4  0  0  0  0
 13 14  4  0  0  0  0
 14 15  1  0  0  0  0
 15 16  4  0  0  0  0
 16 17  4  0  0  0  0
 17 18  4  0  0  0  0
 18 19  1  0  0  0  0
 19 20  1  0  0  0  0
 20 21  4  0  0  0  0
 21 22  4  0  0  0  0
 22 23  4  0  0  0  0
 23 24  1  0  0  0  0
 24 25  2  0  0  0  0
 23 26  4  0  0  0  0
 26 27  4  0  0  0  0
 20 27  4  0  0  0  0
 18 28  4  0  0  0  0
 28 29  4  0  0  0  0
 15 29  4  0  0  0  0
 14 30  4  0  0  0  0
 30 31  4  0  0  0  0
 11 31  4  0  0  0  0
 10 32  4  0  0  0  0
 32 33  4  0  0  0  0
  8 33  4  0  0  0  0
 33 34  4  0  0  0  0
  2 34  4  0  0  0  0
M  STY  1   1 DAT
M  SAL   1  1  32
M  SDT   1 MRV_IMPLICIT_H                                        
M  SDD   1     0.5304   -0.4125    DR    ALL  0       0  
M  SED   1 IMPL_H1
M  END
> <IC50(uM)>
1.59

> <Outcome>
0.0

> <BindingDB ID>
297837

> <BindingDB MonomerID>
155493

> <BindingDB Ligand Name>
US9006454, I135

> <Curation/DataSource>
US Patent

> <Article DOI>
?

> <PMID>
?

> <Patent Number>
US9006454

> <Authors>
Thunuguntla, SS; Subramanya, H; Kunnam, SR; Sanivaru Vijay, SR; Bingi, C; Kusanur, R; Schwarz, M; Arlt, M

> <Link to Ligand in BindingDB>
http://www.bindingdb.org/bind/chemsearch/marvin/MolStructure.jsp?monomerid=155493

> <Link to Ligand-Target Pair in BindingDB>
http://www.bindingdb.org/jsp/dbsearch/PrimarySearch_ki.jsp?energyterm=kJ/mole&tag=r21&monomerid=155493&enzyme=Dihydroorotate+dehydrogenase&column=ki&startPg=0&Increment=50&submit=Search

> <PubChem CID>
58073797

> <PubChem SID>
253658430

$$$$

  Mrv2115 07222212352D          

 26 29  0  0  0  0            999 V2000
    2.5559   -1.8243    0.0000 O   0  0  0  0  0  0  0  0  0  0  0  0
    2.5559   -2.6493    0.0000 C   0  0  0  0  0  0  0  0  0  0  0  0
    1.8414   -3.0618    0.0000 O   0  0  0  0  0  0  0  0  0  0  0  0
    3.2704   -3.0618    0.0000 C   0  0  0  0  0  0  0  0  0  0  0  0
    3.2704   -3.8868    0.0000 C   0  0  0  0  0  0  0  0  0  0  0  0
    3.9849   -4.2993    0.0000 C   0  0  0  0  0  0  0  0  0  0  0  0
    3.9849   -5.1243    0.0000 C   0  0  0  0  0  0  0  0  0  0  0  0
    4.3974   -5.8388    0.0000 C   0  0  0  0  0  0  0  0  0  0  0  0
    3.5724   -5.8388    0.0000 C   0  0  0  0  0  0  0  0  0  0  0  0
    4.6993   -3.8868    0.0000 C   0  0  0  0  0  0  0  0  0  0  0  0
    4.6993   -3.0618    0.0000 C   0  0  0  0  0  0  0  0  0  0  0  0
    3.9849   -2.6493    0.0000 C   0  0  0  0  0  0  0  0  0  0  0  0
    3.9849   -1.8243    0.0000 N   0  0  0  0  0  0  0  0  0  0  0  0
    4.6993   -1.4118    0.0000 C   0  0  0  0  0  0  0  0  0  0  0  0
    4.6993   -0.5868    0.0000 C   0  0  0  0  0  0  0  0  0  0  0  0
    5.4138   -0.1743    0.0000 N   0  0  0  0  0  0  0  0  0  0  0  0
    6.1283   -0.5868    0.0000 C   0  0  0  0  0  0  0  0  0  0  0  0
    6.8427   -0.1743    0.0000 C   0  0  0  0  0  0  0  0  0  0  0  0
    6.8427    0.6507    0.0000 C   0  0  0  0  0  0  0  0  0  0  0  0
    7.5572    1.0632    0.0000 C   0  0  0  0  0  0  0  0  0  0  0  0
    8.2717    0.6507    0.0000 C   0  0  0  0  0  0  0  0  0  0  0  0
    8.2717   -0.1743    0.0000 C   0  0  0  0  0  0  0  0  0  0  0  0
    7.5572   -0.5868    0.0000 C   0  0  0  0  0  0  0  0  0  0  0  0
    7.5572   -1.4118    0.0000 Cl  0  0  0  0  0  0  0  0  0  0  0  0
    6.1283   -1.4118    0.0000 N   0  0  0  0  0  0  0  0  0  0  0  0
    5.4138   -1.8243    0.0000 C   0  0  0  0  0  0  0  0  0  0  0  0
  1  2  2  0  0  0  0
  2  3  1  0  0  0  0
  2  4  1  0  0  0  0
  4  5  4  0  0  0  0
  5  6  4  0  0  0  0
  6  7  1  0  0  0  0
  7  8  1  0  0  0  0
  8  9  1  0  0  0  0
  7  9  1  0  0  0  0
  6 10  4  0  0  0  0
 10 11  4  0  0  0  0
 11 12  4  0  0  0  0
  4 12  4  0  0  0  0
 12 13  1  0  0  0  0
 13 14  1  0  0  0  0
 14 15  4  0  0  0  0
 15 16  4  0  0  0  0
 16 17  4  0  0  0  0
 17 18  1  0  0  0  0
 18 19  4  0  0  0  0
 19 20  4  0  0  0  0
 20 21  4  0  0  0  0
 21 22  4  0  0  0  0
 22 23  4  0  0  0  0
 18 23  4  0  0  0  0
 23 24  1  0  0  0  0
 17 25  4  0  0  0  0
 25 26  4  0  0  0  0
 14 26  4  0  0  0  0
M  END
> <IC50(uM)>
0.003

> <Outcome>
1.0

> <BindingDB ID>
220018

> <BindingDB MonomerID>
102488

> <BindingDB Ligand Name>
US8536165, 92

> <Curation/DataSource>
US Patent

> <Article DOI>
?

> <PMID>
?

> <Patent Number>
US8536165

> <Authors>
Castro Palomino Laria, JC; Terricabras Belart, E; Erra Sola, M; Navarro Romero, E; Fonquerna Pou, S; Cardus Figueras, A; Lozoya Toribio, ME

> <Link to Ligand in BindingDB>
http://www.bindingdb.org/bind/chemsearch/marvin/MolStructure.jsp?monomerid=102488

> <Link to Ligand-Target Pair in BindingDB>
http://www.bindingdb.org/jsp/dbsearch/PrimarySearch_ki.jsp?energyterm=kJ/mole&tag=r21&monomerid=102488&enzyme=Dihydroorotate+dehydrogenase&column=ki&startPg=0&Increment=50&submit=Search

> <PubChem CID>
56968470

> <PubChem SID>
172097779

$$$$

  Mrv2115 07222212352D          

 26 29  0  0  0  0            999 V2000
    5.1156   -3.2652    0.0000 C   0  0  0  0  0  0  0  0  0  0  0  0
    4.4011   -3.6777    0.0000 C   0  0  0  0  0  0  0  0  0  0  0  0
    4.4011   -4.5027    0.0000 C   0  0  0  0  0  0  0  0  0  0  0  0
    3.6866   -4.9152    0.0000 C   0  0  0  0  0  0  0  0  0  0  0  0
    3.6866   -5.7402    0.0000 N   0  0  0  0  0  0  0  0  0  0  0  0
    4.4011   -6.1527    0.0000 C   0  0  0  0  0  0  0  0  0  0  0  0
    5.1548   -5.8172    0.0000 C   0  0  0  0  0  0  0  0  0  0  0  0
    5.7068   -6.4303    0.0000 C   0  0  0  0  0  0  0  0  0  0  0  0
    6.5318   -6.4303    0.0000 C   0  0  0  0  0  0  0  0  0  0  0  0
    6.9443   -7.1447    0.0000 C   0  0  0  0  0  0  0  0  0  0  0  0
    7.7693   -7.1447    0.0000 F   0  0  0  0  0  0  0  0  0  0  0  0
    6.5318   -7.8592    0.0000 C   0  0  0  0  0  0  0  0  0  0  0  0
    6.9443   -8.5737    0.0000 F   0  0  0  0  0  0  0  0  0  0  0  0
    5.7068   -7.8592    0.0000 C   0  0  0  0  0  0  0  0  0  0  0  0
    5.2943   -7.1447    0.0000 C   0  0  0  0  0  0  0  0  0  0  0  0
    4.4874   -6.9732    0.0000 C   0  0  0  0  0  0  0  0  0  0  0  0
    2.9722   -4.5027    0.0000 N   0  0  0  0  0  0  0  0  0  0  0  0
    2.1876   -4.7577    0.0000 N   0  0  0  0  0  0  0  0  0  0  0  0
    1.7026   -4.0902    0.0000 C   0  0  0  0  0  0  0  0  0  0  0  0
    0.8776   -4.0902    0.0000 C   0  0  0  0  0  0  0  0  0  0  0  0
    0.0526   -4.0902    0.0000 C   0  0  0  0  0  0  0  0  0  0  0  0
    0.8776   -3.2652    0.0000 F   0  0  0  0  0  0  0  0  0  0  0  0
    0.8776   -4.9152    0.0000 F   0  0  0  0  0  0  0  0  0  0  0  0
    2.1876   -3.4228    0.0000 N   0  0  0  0  0  0  0  0  0  0  0  0
    2.9722   -3.6777    0.0000 C   0  0  0  0  0  0  0  0  0  0  0  0
    3.6866   -3.2652    0.0000 N   0  0  0  0  0  0  0  0  0  0  0  0
  1  2  1  0  0  0  0
  2  3  4  0  0  0  0
  3  4  4  0  0  0  0
  4  5  1  0  0  0  0
  5  6  1  0  0  0  0
  6  7  1  0  0  0  0
  7  8  1  0  0  0  0
  8  9  4  0  0  0  0
  9 10  4  0  0  0  0
 10 11  1  0  0  0  0
 10 12  4  0  0  0  0
 12 13  1  0  0  0  0
 12 14  4  0  0  0  0
 14 15  4  0  0  0  0
  8 15  4  0  0  0  0
 15 16  1  0  0  0  0
  6 16  1  0  0  0  0
  4 17  4  0  0  0  0
 17 18  4  0  0  0  0
 18 19  4  0  0  0  0
 19 20  1  0  0  0  0
 20 21  1  0  0  0  0
 20 22  1  0  0  0  0
 20 23  1  0  0  0  0
 19 24  4  0  0  0  0
 24 25  4  0  0  0  0
 17 25  4  0  0  0  0
 25 26  4  0  0  0  0
  2 26  4  0  0  0  0
M  END
> <IC50(uM)>
100.0

> <Outcome>
0.0

> <BindingDB ID>
51373013

> <BindingDB MonomerID>
50555368

> <BindingDB Ligand Name>
CHEMBL4794107

> <Curation/DataSource>
ChEMBL

> <Article DOI>
?

> <PMID>
27127993

> <Patent Number>
?

> <Authors>
Kokkonda, S; Deng, X; White, KL; Coteron, JM; Marco, M; de Las Heras, L; White, J; El Mazouni, F; Tomchick, DR; Manjalanagara, K; Rudra, KR; Chen, G; Morizzi, J; Ryan, E; Kaminsky, W; Leroy, D; Mart??nez-Mart??nez, MS; Jimenez-Diaz, MB; Bazaga, SF; Angulo-Barturen, I; Waterson, D; Burrows, JN; Matthews, D; Charman, SA; Phillips, MA; Rathod, PK

> <Link to Ligand in BindingDB>
http://www.bindingdb.org/bind/chemsearch/marvin/MolStructure.jsp?monomerid=50555368

> <Link to Ligand-Target Pair in BindingDB>
http://www.bindingdb.org/jsp/dbsearch/PrimarySearch_ki.jsp?energyterm=kJ/mole&tag=r21&monomerid=50555368&enzyme=Dihydroorotate+dehydrogenase&column=ki&startPg=0&Increment=50&submit=Search

> <PubChem CID>
162673541

> <PubChem SID>
461694136

$$$$

  Mrv2115 07222212352D          

 36 39  0  0  0  0            999 V2000
   -5.2708    1.4423    0.0000 C   0  0  0  0  0  0  0  0  0  0  0  0
   -5.6833    0.7279    0.0000 C   0  0  0  0  0  0  0  0  0  0  0  0
   -6.5083    0.7279    0.0000 C   0  0  0  0  0  0  0  0  0  0  0  0
   -6.9208    0.0134    0.0000 C   0  0  0  0  0  0  0  0  0  0  0  0
   -6.5083   -0.7011    0.0000 C   0  0  0  0  0  0  0  0  0  0  0  0
   -5.6833   -0.7011    0.0000 C   0  0  0  0  0  0  0  0  0  0  0  0
   -5.2708   -1.4156    0.0000 Cl  0  0  0  0  0  0  0  0  0  0  0  0
   -5.2708    0.0134    0.0000 C   0  0  0  0  0  0  0  0  0  0  0  0
   -4.4458    0.0134    0.0000 N   0  0  0  0  0  0  0  0  0  0  0  0
   -4.0333   -0.7011    0.0000 C   0  0  0  0  0  0  0  0  0  0  0  0
   -4.4458   -1.4156    0.0000 O   0  0  0  0  0  0  0  0  0  0  0  0
   -3.2083   -0.7011    0.0000 C   0  0  0  0  0  0  0  0  0  0  0  0
   -2.7958    0.0134    0.0000 C   0  0  0  0  0  0  0  0  0  0  0  0
   -1.9708    0.0134    0.0000 C   0  0  0  0  0  0  0  0  0  0  0  0
   -1.5583    0.7279    0.0000 F   0  0  0  0  0  0  0  0  0  0  0  0
   -1.5583   -0.7011    0.0000 C   0  0  0  0  0  0  0  0  0  0  0  0
   -0.7333   -0.7011    0.0000 N   0  0  0  0  0  0  0  0  0  0  0  0
   -0.2483   -1.3685    0.0000 N   0  0  0  0  0  0  0  0  0  0  0  0
    0.5363   -1.1136    0.0000 C   0  0  0  0  0  0  0  0  0  0  0  0
    0.5363   -0.2886    0.0000 N   0  0  0  0  0  0  0  0  0  0  0  0
   -0.2483   -0.0336    0.0000 C   0  0  0  0  0  0  0  0  0  0  0  0
   -0.5033    0.7510    0.0000 O   0  0  0  0  0  0  0  0  0  0  0  0
    1.1813    0.2258    0.0000 C   0  0  0  0  0  0  0  0  0  0  0  0
    1.9856    0.0422    0.0000 C   0  0  0  0  0  0  0  0  0  0  0  0
    2.3436   -0.7011    0.0000 C   0  0  0  0  0  0  0  0  0  0  0  0
    1.9856   -1.4444    0.0000 O   0  0  0  0  0  0  0  0  0  0  0  0
    1.1813   -1.6280    0.0000 C   0  0  0  0  0  0  0  0  0  0  0  0
   -1.9708   -1.4156    0.0000 C   0  0  0  0  0  0  0  0  0  0  0  0
   -2.7958   -1.4156    0.0000 C   0  0  0  0  0  0  0  0  0  0  0  0
   -3.2083   -2.1300    0.0000 O   0  0  0  0  0  0  0  0  0  0  0  0
   -2.7958   -2.8445    0.0000 C   0  0  0  0  0  0  0  0  0  0  0  0
   -1.9708   -2.8445    0.0000 C   0  0  0  0  0  0  0  0  0  0  0  0
   -3.2083   -3.5590    0.0000 C   0  0  0  0  0  0  0  0  0  0  0  0
   -3.9227   -3.1465    0.0000 F   0  0  0  0  0  0  0  0  0  0  0  0
   -2.4938   -3.9715    0.0000 F   0  0  0  0  0  0  0  0  0  0  0  0
   -3.6208   -4.2734    0.0000 F   0  0  0  0  0  0  0  0  0  0  0  0
  1  2  1  0  0  0  0
  2  3  4  0  0  0  0
  3  4  4  0  0  0  0
  4  5  4  0  0  0  0
  5  6  4  0  0  0  0
  6  7  1  0  0  0  0
  6  8  4  0  0  0  0
  2  8  4  0  0  0  0
  8  9  1  0  0  0  0
  9 10  1  0  0  0  0
 10 11  2  0  0  0  0
 10 12  1  0  0  0  0
 12 13  4  0  0  0  0
 13 14  4  0  0  0  0
 14 15  1  0  0  0  0
 14 16  4  0  0  0  0
 16 17  1  0  0  0  0
 17 18  4  0  0  0  0
 18 19  4  0  0  0  0
 19 20  4  0  0  0  0
 20 21  4  0  0  0  0
 17 21  4  0  0  0  0
 21 22  2  0  0  0  0
 20 23  1  0  0  0  0
 23 24  1  0  0  0  0
 24 25  1  0  0  0  0
 25 26  1  0  0  0  0
 26 27  1  0  0  0  0
 19 27  1  0  0  0  0
 16 28  4  0  0  0  0
 28 29  4  0  0  0  0
 12 29  4  0  0  0  0
 29 30  1  0  0  0  0
 30 31  1  0  0  0  0
 31 32  1  0  0  0  0
 31 33  1  0  0  0  0
 33 34  1  0  0  0  0
 33 35  1  0  0  0  0
 33 36  1  0  0  0  0
M  END
> <IC50(uM)>
0.0032

> <Outcome>
1.0

> <BindingDB ID>
1020636

> <BindingDB MonomerID>
490565

> <BindingDB Ligand Name>
N-(2-chloro-6-methylphenyl)-5-fluoro-4-(3-oxo-6,7-dihydro-3H,5H-[1,2,4]triazolo[3,4-c]-[1,4]oxazepin-2(9H)-yl)-2-{[(2S)-1,1,1-trifluoropropan-2-yl]oxy}benzamide::US10968216, Example 233

> <Curation/DataSource>
US Patent

> <Article DOI>
?

> <PMID>
?

> <Patent Number>
US10968216

> <Authors>
Gradl, SN; Nguyen, D; Eis, K; Gunther, J; Stellfeld, T; Janzer, A; Christian, S; Mueller, T; Sheikh, SE; Zhou, HJ; Zhao, C; Sykes, DB; Ferrara, SJ; Liu, K; Herbert, SA; Merz, C; Niehues, M; Nising, CF; Schafer, M; Zimmermann, K; Knablein, J; Thede, K; Faupel, T

> <Link to Ligand in BindingDB>
http://www.bindingdb.org/bind/chemsearch/marvin/MolStructure.jsp?monomerid=490565

> <Link to Ligand-Target Pair in BindingDB>
http://www.bindingdb.org/jsp/dbsearch/PrimarySearch_ki.jsp?energyterm=kJ/mole&tag=r21&monomerid=490565&enzyme=Dihydroorotate+dehydrogenase&column=ki&startPg=0&Increment=50&submit=Search

> <PubChem CID>
134474144

> <PubChem SID>
447117291

$$$$

  Mrv2115 07222212352D          

 36 39  0  0  0  0            999 V2000
   -5.2708    1.4423    0.0000 C   0  0  0  0  0  0  0  0  0  0  0  0
   -5.6833    0.7279    0.0000 C   0  0  0  0  0  0  0  0  0  0  0  0
   -6.5083    0.7279    0.0000 N   0  0  0  0  0  0  0  0  0  0  0  0
   -6.9208    0.0134    0.0000 C   0  0  0  0  0  0  0  0  0  0  0  0
   -6.5083   -0.7011    0.0000 C   0  0  0  0  0  0  0  0  0  0  0  0
   -5.6833   -0.7011    0.0000 C   0  0  0  0  0  0  0  0  0  0  0  0
   -5.2708   -1.4156    0.0000 Cl  0  0  0  0  0  0  0  0  0  0  0  0
   -5.2708    0.0134    0.0000 C   0  0  0  0  0  0  0  0  0  0  0  0
   -4.4458    0.0134    0.0000 N   0  0  0  0  0  0  0  0  0  0  0  0
   -4.0333   -0.7011    0.0000 C   0  0  0  0  0  0  0  0  0  0  0  0
   -4.4458   -1.4156    0.0000 O   0  0  0  0  0  0  0  0  0  0  0  0
   -3.2083   -0.7011    0.0000 C   0  0  0  0  0  0  0  0  0  0  0  0
   -2.7958    0.0134    0.0000 C   0  0  0  0  0  0  0  0  0  0  0  0
   -1.9708    0.0134    0.0000 C   0  0  0  0  0  0  0  0  0  0  0  0
   -1.5583    0.7279    0.0000 F   0  0  0  0  0  0  0  0  0  0  0  0
   -1.5583   -0.7011    0.0000 C   0  0  0  0  0  0  0  0  0  0  0  0
   -0.7333   -0.7011    0.0000 N   0  0  0  0  0  0  0  0  0  0  0  0
   -0.2483   -1.3685    0.0000 N   0  0  0  0  0  0  0  0  0  0  0  0
    0.5363   -1.1136    0.0000 C   0  0  0  0  0  0  0  0  0  0  0  0
    0.5363   -0.2886    0.0000 N   0  0  0  0  0  0  0  0  0  0  0  0
   -0.2483   -0.0336    0.0000 C   0  0  0  0  0  0  0  0  0  0  0  0
   -0.5033    0.7510    0.0000 O   0  0  0  0  0  0  0  0  0  0  0  0
    1.1813    0.2258    0.0000 C   0  0  0  0  0  0  0  0  0  0  0  0
    1.9856    0.0422    0.0000 C   0  0  0  0  0  0  0  0  0  0  0  0
    2.3436   -0.7011    0.0000 C   0  0  0  0  0  0  0  0  0  0  0  0
    1.9856   -1.4444    0.0000 O   0  0  0  0  0  0  0  0  0  0  0  0
    1.1813   -1.6280    0.0000 C   0  0  0  0  0  0  0  0  0  0  0  0
   -1.9708   -1.4156    0.0000 C   0  0  0  0  0  0  0  0  0  0  0  0
   -2.7958   -1.4156    0.0000 C   0  0  0  0  0  0  0  0  0  0  0  0
   -3.2083   -2.1300    0.0000 O   0  0  0  0  0  0  0  0  0  0  0  0
   -2.7958   -2.8445    0.0000 C   0  0  0  0  0  0  0  0  0  0  0  0
   -1.9708   -2.8445    0.0000 C   0  0  0  0  0  0  0  0  0  0  0  0
   -3.2083   -3.5590    0.0000 C   0  0  0  0  0  0  0  0  0  0  0  0
   -3.9227   -3.1465    0.0000 F   0  0  0  0  0  0  0  0  0  0  0  0
   -2.4938   -3.9715    0.0000 F   0  0  0  0  0  0  0  0  0  0  0  0
   -3.6208   -4.2734    0.0000 F   0  0  0  0  0  0  0  0  0  0  0  0
  1  2  1  0  0  0  0
  2  3  4  0  0  0  0
  3  4  4  0  0  0  0
  4  5  4  0  0  0  0
  5  6  4  0  0  0  0
  6  7  1  0  0  0  0
  6  8  4  0  0  0  0
  2  8  4  0  0  0  0
  8  9  1  0  0  0  0
  9 10  1  0  0  0  0
 10 11  2  0  0  0  0
 10 12  1  0  0  0  0
 12 13  4  0  0  0  0
 13 14  4  0  0  0  0
 14 15  1  0  0  0  0
 14 16  4  0  0  0  0
 16 17  1  0  0  0  0
 17 18  4  0  0  0  0
 18 19  4  0  0  0  0
 19 20  4  0  0  0  0
 20 21  4  0  0  0  0
 17 21  4  0  0  0  0
 21 22  2  0  0  0  0
 20 23  1  0  0  0  0
 23 24  1  0  0  0  0
 24 25  1  0  0  0  0
 25 26  1  0  0  0  0
 26 27  1  0  0  0  0
 19 27  1  0  0  0  0
 16 28  4  0  0  0  0
 28 29  4  0  0  0  0
 12 29  4  0  0  0  0
 29 30  1  0  0  0  0
 30 31  1  0  0  0  0
 31 32  1  0  0  0  0
 31 33  1  0  0  0  0
 33 34  1  0  0  0  0
 33 35  1  0  0  0  0
 33 36  1  0  0  0  0
M  END
> <IC50(uM)>
0.09

> <Outcome>
1.0

> <BindingDB ID>
1020641

> <BindingDB MonomerID>
490570

> <BindingDB Ligand Name>
N-(4-chloro-2-methylpyridin-3-yl)-5-fluoro-4-(3-oxo-6,7-dihydro-3H,5H-[1,2,4]triazolo[3,4-c]-[1,4]oxazepin-2(9H)-yl)-2-{[(2S)-1,1,1-trifluoropropan-2-yl]oxy}benzamide::US10968216, Example 238

> <Curation/DataSource>
US Patent

> <Article DOI>
?

> <PMID>
?

> <Patent Number>
US10968216

> <Authors>
Gradl, SN; Nguyen, D; Eis, K; Gunther, J; Stellfeld, T; Janzer, A; Christian, S; Mueller, T; Sheikh, SE; Zhou, HJ; Zhao, C; Sykes, DB; Ferrara, SJ; Liu, K; Herbert, SA; Merz, C; Niehues, M; Nising, CF; Schafer, M; Zimmermann, K; Knablein, J; Thede, K; Faupel, T

> <Link to Ligand in BindingDB>
http://www.bindingdb.org/bind/chemsearch/marvin/MolStructure.jsp?monomerid=490570

> <Link to Ligand-Target Pair in BindingDB>
http://www.bindingdb.org/jsp/dbsearch/PrimarySearch_ki.jsp?energyterm=kJ/mole&tag=r21&monomerid=490570&enzyme=Dihydroorotate+dehydrogenase&column=ki&startPg=0&Increment=50&submit=Search

> <PubChem CID>
134474068

> <PubChem SID>
447117296

$$$$

  Mrv2115 07222212352D          

 34 37  0  0  0  0            999 V2000
   -5.1659    1.4455    0.0000 C   0  0  0  0  0  0  0  0  0  0  0  0
   -4.3409    1.4455    0.0000 C   0  0  0  0  0  0  0  0  0  0  0  0
   -3.9284    2.1599    0.0000 C   0  0  0  0  0  0  0  0  0  0  0  0
   -3.1034    2.1599    0.0000 C   0  0  0  0  0  0  0  0  0  0  0  0
   -2.6909    1.4455    0.0000 C   0  0  0  0  0  0  0  0  0  0  0  0
   -3.1034    0.7310    0.0000 N   0  0  0  0  0  0  0  0  0  0  0  0
   -3.9284    0.7310    0.0000 C   0  0  0  0  0  0  0  0  0  0  0  0
   -4.3409    0.0165    0.0000 N   0  0  0  0  0  0  0  0  0  0  0  0
   -3.9284   -0.6979    0.0000 C   0  0  0  0  0  0  0  0  0  0  0  0
   -4.3409   -1.4124    0.0000 O   0  0  0  0  0  0  0  0  0  0  0  0
   -3.1034   -0.6979    0.0000 C   0  0  0  0  0  0  0  0  0  0  0  0
   -2.6909    0.0165    0.0000 C   0  0  0  0  0  0  0  0  0  0  0  0
   -1.8659    0.0165    0.0000 C   0  0  0  0  0  0  0  0  0  0  0  0
   -1.4534    0.7310    0.0000 F   0  0  0  0  0  0  0  0  0  0  0  0
   -1.4534   -0.6979    0.0000 C   0  0  0  0  0  0  0  0  0  0  0  0
   -0.6284   -0.6979    0.0000 N   0  0  0  0  0  0  0  0  0  0  0  0
   -0.1435   -1.3654    0.0000 N   0  0  0  0  0  0  0  0  0  0  0  0
    0.6411   -1.1104    0.0000 C   0  0  0  0  0  0  0  0  0  0  0  0
    0.6411   -0.2854    0.0000 N   0  0  0  0  0  0  0  0  0  0  0  0
   -0.1435   -0.0305    0.0000 C   0  0  0  0  0  0  0  0  0  0  0  0
   -0.3984    0.7541    0.0000 O   0  0  0  0  0  0  0  0  0  0  0  0
    1.3556    0.1271    0.0000 C   0  0  0  0  0  0  0  0  0  0  0  0
    2.0701   -0.2854    0.0000 C   0  0  0  0  0  0  0  0  0  0  0  0
    2.0701   -1.1104    0.0000 C   0  0  0  0  0  0  0  0  0  0  0  0
    1.3556   -1.5229    0.0000 C   0  0  0  0  0  0  0  0  0  0  0  0
   -1.8659   -1.4124    0.0000 C   0  0  0  0  0  0  0  0  0  0  0  0
   -2.6909   -1.4124    0.0000 C   0  0  0  0  0  0  0  0  0  0  0  0
   -3.1034   -2.1269    0.0000 O   0  0  0  0  0  0  0  0  0  0  0  0
   -2.6909   -2.8414    0.0000 C   0  0  0  0  0  0  0  0  0  0  0  0
   -1.8659   -2.8414    0.0000 C   0  0  0  0  0  0  0  0  0  0  0  0
   -3.1034   -3.5558    0.0000 C   0  0  0  0  0  0  0  0  0  0  0  0
   -3.8179   -3.1433    0.0000 F   0  0  0  0  0  0  0  0  0  0  0  0
   -2.3890   -3.9683    0.0000 F   0  0  0  0  0  0  0  0  0  0  0  0
   -3.5159   -4.2703    0.0000 F   0  0  0  0  0  0  0  0  0  0  0  0
  1  2  1  0  0  0  0
  2  3  4  0  0  0  0
  3  4  4  0  0  0  0
  4  5  4  0  0  0  0
  5  6  4  0  0  0  0
  6  7  4  0  0  0  0
  2  7  4  0  0  0  0
  7  8  1  0  0  0  0
  8  9  1  0  0  0  0
  9 10  2  0  0  0  0
  9 11  1  0  0  0  0
 11 12  4  0  0  0  0
 12 13  4  0  0  0  0
 13 14  1  0  0  0  0
 13 15  4  0  0  0  0
 15 16  1  0  0  0  0
 16 17  4  0  0  0  0
 17 18  4  0  0  0  0
 18 19  4  0  0  0  0
 19 20  4  0  0  0  0
 16 20  4  0  0  0  0
 20 21  2  0  0  0  0
 19 22  1  0  0  0  0
 22 23  1  0  0  0  0
 23 24  1  0  0  0  0
 24 25  1  0  0  0  0
 18 25  1  0  0  0  0
 15 26  4  0  0  0  0
 26 27  4  0  0  0  0
 11 27  4  0  0  0  0
 27 28  1  0  0  0  0
 28 29  1  0  0  0  0
 29 30  1  0  0  0  0
 29 31  1  0  0  0  0
 31 32  1  0  0  0  0
 31 33  1  0  0  0  0
 31 34  1  0  0  0  0
M  END
> <IC50(uM)>
0.17

> <Outcome>
1.0

> <BindingDB ID>
1020461

> <BindingDB MonomerID>
490409

> <BindingDB Ligand Name>
5-fluoro-N-(3-methylpyridin-2-yl)-4-(3-oxo-5,6,7,8-tetrahydro[1,2,4]triazolo[4,3-a]pyridin-2(3H)-yl)-2-{[(2S)-1,1,1-trifluoropropan-2-yl]oxy}benzamide::US10968216, Example 77

> <Curation/DataSource>
US Patent

> <Article DOI>
?

> <PMID>
?

> <Patent Number>
US10968216

> <Authors>
Gradl, SN; Nguyen, D; Eis, K; Gunther, J; Stellfeld, T; Janzer, A; Christian, S; Mueller, T; Sheikh, SE; Zhou, HJ; Zhao, C; Sykes, DB; Ferrara, SJ; Liu, K; Herbert, SA; Merz, C; Niehues, M; Nising, CF; Schafer, M; Zimmermann, K; Knablein, J; Thede, K; Faupel, T

> <Link to Ligand in BindingDB>
http://www.bindingdb.org/bind/chemsearch/marvin/MolStructure.jsp?monomerid=490409

> <Link to Ligand-Target Pair in BindingDB>
http://www.bindingdb.org/jsp/dbsearch/PrimarySearch_ki.jsp?energyterm=kJ/mole&tag=r21&monomerid=490409&enzyme=Dihydroorotate+dehydrogenase&column=ki&startPg=0&Increment=50&submit=Search

> <PubChem CID>
134473901

> <PubChem SID>
447117136

$$$$

  Mrv2115 07222212352D          

 30 33  0  0  0  0            999 V2000
    3.9934    2.4750    0.0000 O   0  0  0  0  0  0  0  0  0  0  0  0
    3.2789    2.0625    0.0000 C   0  0  0  0  0  0  0  0  0  0  0  0
    2.5645    2.4750    0.0000 O   0  0  0  0  0  0  0  0  0  0  0  0
    3.2789    1.2375    0.0000 C   0  0  0  0  0  0  0  0  0  0  0  0
    3.9934    0.8250    0.0000 C   0  0  0  0  0  0  0  0  0  0  0  0
    3.9934    0.0000    0.0000 C   0  0  0  0  0  0  0  0  0  0  0  0
    3.2789   -0.4125    0.0000 C   0  0  0  0  0  0  0  0  0  0  0  0
    2.5645    0.0000    0.0000 C   0  0  0  0  0  0  0  0  0  0  0  0
    1.7798   -0.2549    0.0000 N   0  0  0  0  0  0  0  0  0  0  0  0
    1.2949    0.4125    0.0000 C   0  0  0  0  0  0  0  0  0  0  0  0
    0.4699    0.4125    0.0000 C   0  0  0  0  0  0  0  0  0  0  0  0
    0.0574   -0.3020    0.0000 C   0  0  0  0  0  0  0  0  0  0  0  0
    0.4699   -1.0164    0.0000 F   0  0  0  0  0  0  0  0  0  0  0  0
   -0.7676   -0.3020    0.0000 C   0  0  0  0  0  0  0  0  0  0  0  0
   -1.1801   -1.0164    0.0000 F   0  0  0  0  0  0  0  0  0  0  0  0
   -1.1801    0.4125    0.0000 C   0  0  0  0  0  0  0  0  0  0  0  0
   -2.0051    0.4125    0.0000 C   0  0  0  0  0  0  0  0  0  0  0  0
   -2.4176   -0.3020    0.0000 C   0  0  0  0  0  0  0  0  0  0  0  0
   -3.2426   -0.3020    0.0000 C   0  0  0  0  0  0  0  0  0  0  0  0
   -3.6551    0.4125    0.0000 C   0  0  0  0  0  0  0  0  0  0  0  0
   -3.2426    1.1270    0.0000 C   0  0  0  0  0  0  0  0  0  0  0  0
   -3.6551    1.8414    0.0000 F   0  0  0  0  0  0  0  0  0  0  0  0
   -2.4176    1.1270    0.0000 C   0  0  0  0  0  0  0  0  0  0  0  0
   -2.0051    1.8414    0.0000 F   0  0  0  0  0  0  0  0  0  0  0  0
   -0.7676    1.1270    0.0000 C   0  0  0  0  0  0  0  0  0  0  0  0
   -1.1801    1.8414    0.0000 F   0  0  0  0  0  0  0  0  0  0  0  0
    0.0574    1.1270    0.0000 C   0  0  0  0  0  0  0  0  0  0  0  0
    0.4699    1.8414    0.0000 F   0  0  0  0  0  0  0  0  0  0  0  0
    1.7798    1.0799    0.0000 N   0  0  0  0  0  0  0  0  0  0  0  0
    2.5645    0.8250    0.0000 C   0  0  0  0  0  0  0  0  0  0  0  0
  1  2  2  0  0  0  0
  2  3  1  0  0  0  0
  2  4  1  0  0  0  0
  4  5  4  0  0  0  0
  5  6  4  0  0  0  0
  6  7  4  0  0  0  0
  7  8  4  0  0  0  0
  8  9  4  0  0  0  0
  9 10  4  0  0  0  0
 10 11  1  0  0  0  0
 11 12  4  0  0  0  0
 12 13  1  0  0  0  0
 12 14  4  0  0  0  0
 14 15  1  0  0  0  0
 14 16  4  0  0  0  0
 16 17  1  0  0  0  0
 17 18  4  0  0  0  0
 18 19  4  0  0  0  0
 19 20  4  0  0  0  0
 20 21  4  0  0  0  0
 21 22  1  0  0  0  0
 21 23  4  0  0  0  0
 17 23  4  0  0  0  0
 23 24  1  0  0  0  0
 16 25  4  0  0  0  0
 25 26  1  0  0  0  0
 25 27  4  0  0  0  0
 11 27  4  0  0  0  0
 27 28  1  0  0  0  0
 10 29  4  0  0  0  0
 29 30  4  0  0  0  0
  4 30  4  0  0  0  0
  8 30  4  0  0  0  0
M  STY  1   1 DAT
M  SAL   1  1   9
M  SDT   1 MRV_IMPLICIT_H                                        
M  SDD   1     0.5304   -0.4125    DR    ALL  0       0  
M  SED   1 IMPL_H1
M  END
> <IC50(uM)>
0.209

> <Outcome>
1.0

> <BindingDB ID>
297830

> <BindingDB MonomerID>
155486

> <BindingDB Ligand Name>
US9006454, I128

> <Curation/DataSource>
US Patent

> <Article DOI>
?

> <PMID>
?

> <Patent Number>
US9006454

> <Authors>
Thunuguntla, SS; Subramanya, H; Kunnam, SR; Sanivaru Vijay, SR; Bingi, C; Kusanur, R; Schwarz, M; Arlt, M

> <Link to Ligand in BindingDB>
http://www.bindingdb.org/bind/chemsearch/marvin/MolStructure.jsp?monomerid=155486

> <Link to Ligand-Target Pair in BindingDB>
http://www.bindingdb.org/jsp/dbsearch/PrimarySearch_ki.jsp?energyterm=kJ/mole&tag=r21&monomerid=155486&enzyme=Dihydroorotate+dehydrogenase&column=ki&startPg=0&Increment=50&submit=Search

> <PubChem CID>
58073767

> <PubChem SID>
253658423

$$$$

  Mrv2115 07222212352D          

 22 23  0  0  0  0            999 V2000
    2.5878   -3.3454    0.0000 C   0  0  0  0  0  0  0  0  0  0  0  0
    2.8579   -4.1250    0.0000 C   0  0  0  0  0  0  0  0  0  0  0  0
    3.6680   -4.2809    0.0000 O   0  0  0  0  0  0  0  0  0  0  0  0
    3.9381   -5.0605    0.0000 C   0  0  0  0  0  0  0  0  0  0  0  0
    3.3980   -5.6841    0.0000 O   0  0  0  0  0  0  0  0  0  0  0  0
    4.7482   -5.2164    0.0000 C   0  0  0  0  0  0  0  0  0  0  0  0
    5.0182   -5.9959    0.0000 C   0  0  0  0  0  0  0  0  0  0  0  0
    5.8284   -6.1518    0.0000 N   0  0  0  0  0  0  0  0  0  0  0  0
    6.0984   -6.9314    0.0000 C   0  0  0  0  0  0  0  0  0  0  0  0
    6.9086   -7.0873    0.0000 C   0  0  0  0  0  0  0  0  0  0  0  0
    7.1786   -7.8668    0.0000 C   0  0  0  0  0  0  0  0  0  0  0  0
    6.6385   -8.4905    0.0000 C   0  0  0  0  0  0  0  0  0  0  0  0
    6.7406   -9.3092    0.0000 N   0  0  0  0  0  0  0  0  0  0  0  0
    5.9935   -9.6592    0.0000 N   0  0  0  0  0  0  0  0  0  0  0  0
    5.4298   -9.0569    0.0000 C   0  0  0  0  0  0  0  0  0  0  0  0
    5.8284   -8.3346    0.0000 C   0  0  0  0  0  0  0  0  0  0  0  0
    5.5583   -7.5550    0.0000 C   0  0  0  0  0  0  0  0  0  0  0  0
    5.2883   -4.5927    0.0000 C   0  0  0  0  0  0  0  0  0  0  0  0
    5.0182   -3.8132    0.0000 O   0  0  0  0  0  0  0  0  0  0  0  0
    6.0984   -4.7486    0.0000 O   0  0  0  0  0  0  0  0  0  0  0  0
    6.6385   -4.1250    0.0000 C   0  0  0  0  0  0  0  0  0  0  0  0
    7.4486   -4.2809    0.0000 C   0  0  0  0  0  0  0  0  0  0  0  0
  1  2  1  0  0  0  0
  2  3  1  0  0  0  0
  3  4  1  0  0  0  0
  4  5  2  0  0  0  0
  4  6  1  0  0  0  0
  7  6  1  4  0  0  0
  7  8  2  0  0  0  0
  8  9  1  0  0  0  0
  9 10  4  0  0  0  0
 10 11  4  0  0  0  0
 11 12  4  0  0  0  0
 12 13  4  0  0  0  0
 13 14  4  0  0  0  0
 14 15  4  0  0  0  0
 15 16  4  0  0  0  0
 12 16  4  0  0  0  0
 16 17  4  0  0  0  0
  9 17  4  0  0  0  0
  6 18  1  0  0  0  0
 18 19  2  0  0  0  0
 18 20  1  0  0  0  0
 20 21  1  0  0  0  0
 21 22  1  0  0  0  0
M  STY  1   1 DAT
M  SAL   1  1  14
M  SDT   1 MRV_IMPLICIT_H                                        
M  SDD   1     0.5304   -0.4125    DR    ALL  0       0  
M  SED   1 IMPL_H1
M  END
> <IC50(uM)>
123.3

> <Outcome>
0.0

> <BindingDB ID>
26830

> <BindingDB MonomerID>
14702

> <BindingDB Ligand Name>
1,3-diethyl 2-[(1H-indazol-5-ylamino)methylidene]propanedioate::2-[(1H-Indazol-5-ylamino)-methylene]-malonic acid diethyl ester::bicyclic compound 7

> <Curation/DataSource>
Curated from the literature by BindingDB

> <Article DOI>
10.1021/jm060687j

> <PMID>
17228860

> <Patent Number>
?

> <Authors>
Heikkila, T; Ramsey, C; Davies, M; Galtier, C; Stead, AM; Johnson, AP; Fishwick, CW; Boa, AN; McConkey, GA

> <Link to Ligand in BindingDB>
http://www.bindingdb.org/bind/chemsearch/marvin/MolStructure.jsp?monomerid=14702

> <Link to Ligand-Target Pair in BindingDB>
http://www.bindingdb.org/jsp/dbsearch/PrimarySearch_ki.jsp?energyterm=kJ/mole&tag=r21&monomerid=14702&enzyme=Dihydroorotate+dehydrogenase&column=ki&startPg=0&Increment=50&submit=Search

> <PubChem CID>
91895904

> <PubChem SID>
46515032

$$$$

  Mrv2115 07222212352D          

 29 31  0  0  0  0            999 V2000
   -0.0000    9.6536    0.0000 C   0  0  0  0  0  0  0  0  0  0  0  0
    0.7145    9.2411    0.0000 O   0  0  0  0  0  0  0  0  0  0  0  0
    1.4289    9.6536    0.0000 C   0  0  0  0  0  0  0  0  0  0  0  0
    1.4289   10.4786    0.0000 C   0  0  0  0  0  0  0  0  0  0  0  0
    2.1434   10.8911    0.0000 C   0  0  0  0  0  0  0  0  0  0  0  0
    2.8579   10.4786    0.0000 C   0  0  0  0  0  0  0  0  0  0  0  0
    2.8579    9.6536    0.0000 C   0  0  0  0  0  0  0  0  0  0  0  0
    2.1434    9.2411    0.0000 C   0  0  0  0  0  0  0  0  0  0  0  0
    2.1434    8.4161    0.0000 C   0  0  0  0  0  0  0  0  0  0  0  0
    2.8579    8.0036    0.0000 C   0  0  0  0  0  0  0  0  0  0  0  0
    3.5724    8.4161    0.0000 F   0  0  0  0  0  0  0  0  0  0  0  0
    2.8579    7.1786    0.0000 C   0  0  0  0  0  0  0  0  0  0  0  0
    3.5724    6.7661    0.0000 F   0  0  0  0  0  0  0  0  0  0  0  0
    2.1434    6.7661    0.0000 C   0  0  0  0  0  0  0  0  0  0  0  0
    2.1434    5.9411    0.0000 N   0  0  0  0  0  0  0  0  0  0  0  0
    1.4289    5.5286    0.0000 C   0  0  0  0  0  0  0  0  0  0  0  0
    0.7145    5.9411    0.0000 O   0  0  0  0  0  0  0  0  0  0  0  0
    1.4289    4.7036    0.0000 C   0  0  0  0  0  0  0  0  0  0  0  0
    2.0964    4.2187    0.0000 C   0  0  0  0  0  0  0  0  0  0  0  0
    1.8414    3.4340    0.0000 C   0  0  0  0  0  0  0  0  0  0  0  0
    1.0164    3.4340    0.0000 S   0  0  0  0  0  0  0  0  0  0  0  0
    0.7615    4.2187    0.0000 C   0  0  0  0  0  0  0  0  0  0  0  0
   -0.0231    4.4736    0.0000 C   0  0  0  0  0  0  0  0  0  0  0  0
   -0.6362    3.9216    0.0000 O   0  0  0  0  0  0  0  0  0  0  0  0
   -0.1946    5.2806    0.0000 O   0  0  0  0  0  0  0  0  0  0  0  0
    1.4289    7.1786    0.0000 C   0  0  0  0  0  0  0  0  0  0  0  0
    0.7145    6.7661    0.0000 F   0  0  0  0  0  0  0  0  0  0  0  0
    1.4289    8.0036    0.0000 C   0  0  0  0  0  0  0  0  0  0  0  0
    0.7145    8.4161    0.0000 F   0  0  0  0  0  0  0  0  0  0  0  0
  1  2  1  0  0  0  0
  2  3  1  0  0  0  0
  3  4  4  0  0  0  0
  4  5  4  0  0  0  0
  5  6  4  0  0  0  0
  6  7  4  0  0  0  0
  7  8  4  0  0  0  0
  3  8  4  0  0  0  0
  8  9  1  0  0  0  0
  9 10  4  0  0  0  0
 10 11  1  0  0  0  0
 10 12  4  0  0  0  0
 12 13  1  0  0  0  0
 12 14  4  0  0  0  0
 14 15  1  0  0  0  0
 15 16  1  0  0  0  0
 16 17  2  0  0  0  0
 16 18  1  0  0  0  0
 18 19  4  0  0  0  0
 19 20  4  0  0  0  0
 20 21  4  0  0  0  0
 21 22  4  0  0  0  0
 18 22  4  0  0  0  0
 22 23  1  0  0  0  0
 23 24  2  0  0  0  0
 23 25  1  0  0  0  0
 14 26  4  0  0  0  0
 26 27  1  0  0  0  0
 26 28  4  0  0  0  0
  9 28  4  0  0  0  0
 28 29  1  0  0  0  0
M  END
> <IC50(uM)>
0.001

> <Outcome>
1.0

> <BindingDB ID>
29220

> <BindingDB MonomerID>
16117

> <BindingDB Ligand Name>
3-{[2,3,5,6-tetrafluoro-4-(2-methoxyphenyl)phenyl]carbamoyl}thiophene-2-carboxylic acid::Biphenyl-4-ylcarbamoyl Thiophene Analog 8

> <Curation/DataSource>
Curated from the literature by BindingDB

> <Article DOI>
10.1016/j.bmcl.2005.10.011

> <PMID>
16246558

> <Patent Number>
?

> <Authors>
Leban, J; Kralik, M; Mies, J; Baumgartner, R; Gassen, M; Tasler, S

> <Link to Ligand in BindingDB>
http://www.bindingdb.org/bind/chemsearch/marvin/MolStructure.jsp?monomerid=16117

> <Link to Ligand-Target Pair in BindingDB>
http://www.bindingdb.org/jsp/dbsearch/PrimarySearch_ki.jsp?energyterm=kJ/mole&tag=r21&monomerid=16117&enzyme=Dihydroorotate+Dehydrogenase+%28DHODH%29&column=ki&startPg=0&Increment=50&submit=Search

> <PubChem CID>
11524688

> <PubChem SID>
46516376

$$$$

  Mrv2115 07222212352D          

 36 38  0  0  0  0            999 V2000
    2.1434   -3.7125    0.0000 C   0  0  0  0  0  0  0  0  0  0  0  0
    1.4289   -4.1250    0.0000 C   0  0  0  0  0  0  0  0  0  0  0  0
    1.4289   -4.9500    0.0000 N   0  0  0  0  0  0  0  0  0  0  0  0
    2.0964   -5.4349    0.0000 C   0  0  0  0  0  0  0  0  0  0  0  0
    2.8810   -5.1800    0.0000 C   0  0  0  0  0  0  0  0  0  0  0  0
    3.4941   -5.7320    0.0000 O   0  0  0  0  0  0  0  0  0  0  0  0
    3.0525   -4.3730    0.0000 O   0  0  0  0  0  0  0  0  0  0  0  0
    1.8414   -6.2195    0.0000 N   0  0  0  0  0  0  0  0  0  0  0  0
    1.0164   -6.2195    0.0000 N   0  0  0  0  0  0  0  0  0  0  0  0
    0.5315   -6.8870    0.0000 C   0  0  0  0  0  0  0  0  0  0  0  0
    0.8671   -7.6407    0.0000 C   0  0  0  0  0  0  0  0  0  0  0  0
    0.3822   -8.3081    0.0000 C   0  0  0  0  0  0  0  0  0  0  0  0
   -0.4383   -8.2219    0.0000 C   0  0  0  0  0  0  0  0  0  0  0  0
   -0.9232   -8.8893    0.0000 C   0  0  0  0  0  0  0  0  0  0  0  0
   -1.7437   -8.8031    0.0000 O   0  0  0  0  0  0  0  0  0  0  0  0
   -0.5877   -9.6430    0.0000 N   0  0  0  0  0  0  0  0  0  0  0  0
   -1.0726  -10.3104    0.0000 C   0  0  0  0  0  0  0  0  0  0  0  0
   -0.7371  -11.0641    0.0000 C   0  0  0  0  0  0  0  0  0  0  0  0
    0.0834  -11.1503    0.0000 F   0  0  0  0  0  0  0  0  0  0  0  0
   -1.2220  -11.7315    0.0000 C   0  0  0  0  0  0  0  0  0  0  0  0
   -2.0425  -11.6453    0.0000 C   0  0  0  0  0  0  0  0  0  0  0  0
   -2.3780  -10.8916    0.0000 C   0  0  0  0  0  0  0  0  0  0  0  0
   -1.8931  -10.2242    0.0000 C   0  0  0  0  0  0  0  0  0  0  0  0
   -2.2287   -9.4705    0.0000 Cl  0  0  0  0  0  0  0  0  0  0  0  0
   -0.7739   -7.4682    0.0000 C   0  0  0  0  0  0  0  0  0  0  0  0
   -1.5944   -7.3820    0.0000 O   0  0  0  0  0  0  0  0  0  0  0  0
   -1.9299   -6.6283    0.0000 C   0  0  0  0  0  0  0  0  0  0  0  0
   -1.4450   -5.9608    0.0000 C   0  0  0  0  0  0  0  0  0  0  0  0
   -2.7504   -6.5420    0.0000 C   0  0  0  0  0  0  0  0  0  0  0  0
   -2.6642   -5.7216    0.0000 F   0  0  0  0  0  0  0  0  0  0  0  0
   -2.8366   -7.3625    0.0000 F   0  0  0  0  0  0  0  0  0  0  0  0
   -3.5709   -6.4558    0.0000 F   0  0  0  0  0  0  0  0  0  0  0  0
   -0.2890   -6.8007    0.0000 C   0  0  0  0  0  0  0  0  0  0  0  0
   -0.6245   -6.0471    0.0000 F   0  0  0  0  0  0  0  0  0  0  0  0
    0.7615   -5.4349    0.0000 C   0  0  0  0  0  0  0  0  0  0  0  0
   -0.0231   -5.1800    0.0000 O   0  0  0  0  0  0  0  0  0  0  0  0
  1  2  1  0  0  0  0
  2  3  1  0  0  0  0
  3  4  4  0  0  0  0
  4  5  1  0  0  0  0
  5  6  2  0  0  0  0
  5  7  1  0  0  0  0
  4  8  4  0  0  0  0
  8  9  4  0  0  0  0
  9 10  1  0  0  0  0
 10 11  4  0  0  0  0
 11 12  4  0  0  0  0
 12 13  4  0  0  0  0
 13 14  1  0  0  0  0
 14 15  2  0  0  0  0
 14 16  1  0  0  0  0
 16 17  1  0  0  0  0
 17 18  4  0  0  0  0
 18 19  1  0  0  0  0
 18 20  4  0  0  0  0
 20 21  4  0  0  0  0
 21 22  4  0  0  0  0
 22 23  4  0  0  0  0
 17 23  4  0  0  0  0
 23 24  1  0  0  0  0
 13 25  4  0  0  0  0
 25 26  1  0  0  0  0
 26 27  1  0  0  0  0
 27 28  1  0  0  0  0
 27 29  1  0  0  0  0
 29 30  1  0  0  0  0
 29 31  1  0  0  0  0
 29 32  1  0  0  0  0
 25 33  4  0  0  0  0
 10 33  4  0  0  0  0
 33 34  1  0  0  0  0
  9 35  4  0  0  0  0
  3 35  4  0  0  0  0
 35 36  2  0  0  0  0
M  END
> <IC50(uM)>
0.3

> <Outcome>
1.0

> <BindingDB ID>
972678; 1098832

> <BindingDB MonomerID>
470556

> <BindingDB Ligand Name>
1-(4-[(2-chloro-6-fluorophenyl)carbamoyl]-2-fluoro-3-{[(2S)-1,1,1-trifluoropropan-2-yl]oxy}phenyl)-4-ethyl-5-oxo-4,5-dihydro-1H-1,2,4-triazole-3-carboxylic acid::US10815215, Example 216; 1-(4-[(2-chloro-6-fluorophenyl)carbamoyl]-2-fluoro-3-{[(2S)-1,1,1-trifluoropropan-2-yl]oxy}phenyl)-4-ethyl-5-oxo-4,5-dihydro-1H-1,2,4-triazole-3-carboxylic acid::US10815215, Example 216::US11130745, Example 216

> <Curation/DataSource>
US Patent

> <Article DOI>
?

> <PMID>
?

> <Patent Number>
US10815215; US11130745

> <Authors>
Gradl, SN; Nguyen, D; Eis, K; Gunther, J; Stellfeld, T; Janzer, A; Christian, S; Muller, T; Sheikh, SE; Zhou, HJ; Zhao, C; Sykes, DB; Ferrara, SJ; Liu, K; Krober, M; Merz, C; Niehues, M; Schafer, M; Zimmermann, K; Nising, CF; Gradl, SN; Nguyen, D; Eis, K; Gunther, J; Stellfeld, T; Janzer, A; Christian, S; Muller, T; Sheikh, SE; Sykes, DB; Ferrara, SJ; Krober, M; Merz, C; Niehues, M; Schafer, M; Zimmermann, K; Nising, CF

> <Link to Ligand in BindingDB>
http://www.bindingdb.org/bind/chemsearch/marvin/MolStructure.jsp?monomerid=470556

> <Link to Ligand-Target Pair in BindingDB>
http://www.bindingdb.org/jsp/dbsearch/PrimarySearch_ki.jsp?energyterm=kJ/mole&tag=r21&monomerid=470556&enzyme=Dihydroorotate+dehydrogenase&column=ki&startPg=0&Increment=50&submit=Search

> <PubChem CID>
134470208

> <PubChem SID>
441609732

$$$$

  Mrv2115 07222212352D          

 28 30  0  0  0  0            999 V2000
   -1.4289   12.1286    0.0000 C   0  0  0  0  0  0  0  0  0  0  0  0
   -0.7145   11.7161    0.0000 N   0  0  0  0  0  0  0  0  0  0  0  0
   -0.0000   12.1286    0.0000 C   0  0  0  0  0  0  0  0  0  0  0  0
   -0.7145   10.8911    0.0000 C   0  0  0  0  0  0  0  0  0  0  0  0
   -0.0000   10.4786    0.0000 C   0  0  0  0  0  0  0  0  0  0  0  0
   -0.0000    9.6536    0.0000 C   0  0  0  0  0  0  0  0  0  0  0  0
   -0.7145    9.2411    0.0000 C   0  0  0  0  0  0  0  0  0  0  0  0
   -0.7145    8.4161    0.0000 C   0  0  0  0  0  0  0  0  0  0  0  0
   -0.0000    8.0036    0.0000 C   0  0  0  0  0  0  0  0  0  0  0  0
   -0.0000    7.1786    0.0000 C   0  0  0  0  0  0  0  0  0  0  0  0
    0.7145    6.7661    0.0000 F   0  0  0  0  0  0  0  0  0  0  0  0
   -0.7145    6.7661    0.0000 C   0  0  0  0  0  0  0  0  0  0  0  0
   -0.7145    5.9411    0.0000 N   0  0  0  0  0  0  0  0  0  0  0  0
   -0.0000    5.5286    0.0000 C   0  0  0  0  0  0  0  0  0  0  0  0
    0.7145    5.9411    0.0000 O   0  0  0  0  0  0  0  0  0  0  0  0
   -0.0000    4.7036    0.0000 C   0  0  0  0  0  0  0  0  0  0  0  0
    0.6674    4.2187    0.0000 C   0  0  0  0  0  0  0  0  0  0  0  0
    1.4521    4.4736    0.0000 C   0  0  0  0  0  0  0  0  0  0  0  0
    1.6236    5.2806    0.0000 O   0  0  0  0  0  0  0  0  0  0  0  0
    2.0652    3.9216    0.0000 O   0  0  0  0  0  0  0  0  0  0  0  0
    0.4125    3.4340    0.0000 C   0  0  0  0  0  0  0  0  0  0  0  0
   -0.4125    3.4340    0.0000 C   0  0  0  0  0  0  0  0  0  0  0  0
   -0.6674    4.2187    0.0000 C   0  0  0  0  0  0  0  0  0  0  0  0
   -1.4289    7.1786    0.0000 C   0  0  0  0  0  0  0  0  0  0  0  0
   -2.1434    6.7661    0.0000 F   0  0  0  0  0  0  0  0  0  0  0  0
   -1.4289    8.0036    0.0000 C   0  0  0  0  0  0  0  0  0  0  0  0
   -1.4289    9.6536    0.0000 C   0  0  0  0  0  0  0  0  0  0  0  0
   -1.4289   10.4786    0.0000 C   0  0  0  0  0  0  0  0  0  0  0  0
  1  2  1  0  0  0  0
  2  3  1  0  0  0  0
  2  4  1  0  0  0  0
  4  5  4  0  0  0  0
  5  6  4  0  0  0  0
  6  7  4  0  0  0  0
  7  8  1  0  0  0  0
  8  9  4  0  0  0  0
  9 10  4  0  0  0  0
 10 11  1  0  0  0  0
 10 12  4  0  0  0  0
 12 13  1  0  0  0  0
 13 14  1  0  0  0  0
 14 15  2  0  0  0  0
 14 16  1  0  0  0  0
 16 17  2  0  0  0  0
 17 18  1  0  0  0  0
 18 19  2  0  0  0  0
 18 20  1  0  0  0  0
 17 21  1  0  0  0  0
 21 22  1  0  0  0  0
 22 23  1  0  0  0  0
 16 23  1  0  0  0  0
 12 24  4  0  0  0  0
 24 25  1  0  0  0  0
 24 26  4  0  0  0  0
  8 26  4  0  0  0  0
  7 27  4  0  0  0  0
 27 28  4  0  0  0  0
  4 28  4  0  0  0  0
M  END
> <IC50(uM)>
0.61

> <Outcome>
1.0

> <BindingDB ID>
50251704

> <BindingDB MonomerID>
50137289

> <BindingDB Ligand Name>
2-(4'-Dimethylamino-3,5-difluoro-biphenyl-4-ylcarbamoyl)-cyclopent-1-enecarboxylic acid::CHEMBL154613

> <Curation/DataSource>
ChEMBL

> <Article DOI>
10.1016/j.bmcl.2003.10.021

> <PMID>
14684297

> <Patent Number>
?

> <Authors>
Leban, J; Saeb, W; Garcia, G; Baumgartner, R; Kramer, B

> <Link to Ligand in BindingDB>
http://www.bindingdb.org/bind/chemsearch/marvin/MolStructure.jsp?monomerid=50137289

> <Link to Ligand-Target Pair in BindingDB>
http://www.bindingdb.org/jsp/dbsearch/PrimarySearch_ki.jsp?energyterm=kJ/mole&tag=r21&monomerid=50137289&enzyme=Dihydroorotate+dehydrogenase&column=ki&startPg=0&Increment=50&submit=Search

> <PubChem CID>
44369554

> <PubChem SID>
104027455

$$$$

  Mrv2115 07222212352D          

 23 25  0  0  0  0            999 V2000
    2.1434   -2.8875    0.0000 O   0  0  0  0  0  0  0  0  0  0  0  0
    2.1434   -3.7125    0.0000 C   0  0  0  0  0  0  0  0  0  0  0  0
    2.8579   -4.1250    0.0000 O   0  0  0  0  0  0  0  0  0  0  0  0
    1.4289   -4.1250    0.0000 C   0  0  0  0  0  0  0  0  0  0  0  0
    1.4289   -4.9500    0.0000 N   0  0  0  0  0  0  0  0  0  0  0  0
    0.7145   -5.3625    0.0000 C   0  0  0  0  0  0  0  0  0  0  0  0
    0.7145   -6.1875    0.0000 O   0  0  0  0  0  0  0  0  0  0  0  0
    0.0000   -4.9500    0.0000 N   0  0  0  0  0  0  0  0  0  0  0  0
    0.0000   -4.1250    0.0000 C   0  0  0  0  0  0  0  0  0  0  0  0
   -0.7145   -3.7125    0.0000 O   0  0  0  0  0  0  0  0  0  0  0  0
    0.7145   -3.7125    0.0000 C   0  0  0  0  0  0  0  0  0  0  0  0
    0.7145   -2.8875    0.0000 C   0  0  0  0  0  0  0  0  0  0  0  0
    1.4289   -2.4750    0.0000 C   0  0  0  0  0  0  0  0  0  0  0  0
    1.4289   -1.6500    0.0000 C   0  0  0  0  0  0  0  0  0  0  0  0
    0.7145   -1.2375    0.0000 C   0  0  0  0  0  0  0  0  0  0  0  0
    0.7145   -0.4125    0.0000 C   0  0  0  0  0  0  0  0  0  0  0  0
    1.4289    0.0000    0.0000 C   0  0  0  0  0  0  0  0  0  0  0  0
    2.1434   -0.4125    0.0000 C   0  0  0  0  0  0  0  0  0  0  0  0
    2.8579    0.0000    0.0000 C   0  0  0  0  0  0  0  0  0  0  0  0
    3.5724   -0.4125    0.0000 C   0  0  0  0  0  0  0  0  0  0  0  0
    3.5724   -1.2375    0.0000 C   0  0  0  0  0  0  0  0  0  0  0  0
    2.8579   -1.6500    0.0000 C   0  0  0  0  0  0  0  0  0  0  0  0
    2.1434   -1.2375    0.0000 C   0  0  0  0  0  0  0  0  0  0  0  0
  1  2  2  0  0  0  0
  2  3  1  0  0  0  0
  2  4  1  0  0  0  0
  4  5  4  0  0  0  0
  5  6  4  0  0  0  0
  6  7  2  0  0  0  0
  6  8  4  0  0  0  0
  8  9  4  0  0  0  0
  9 10  2  0  0  0  0
  9 11  4  0  0  0  0
  4 11  4  0  0  0  0
 11 12  1  0  0  0  0
 12 13  1  0  0  0  0
 13 14  1  0  0  0  0
 14 15  4  0  0  0  0
 15 16  4  0  0  0  0
 16 17  4  0  0  0  0
 17 18  4  0  0  0  0
 18 19  4  0  0  0  0
 19 20  4  0  0  0  0
 20 21  4  0  0  0  0
 21 22  4  0  0  0  0
 22 23  4  0  0  0  0
 14 23  4  0  0  0  0
 18 23  4  0  0  0  0
M  STY  2   1 DAT   2 DAT
M  SAL   1  1   5
M  SDT   1 MRV_IMPLICIT_H                                        
M  SDD   1     0.5304   -0.4125    DR    ALL  0       0  
M  SED   1 IMPL_H1
M  SAL   2  1   8
M  SDT   2 MRV_IMPLICIT_H                                        
M  SDD   2     0.5304   -0.4125    DR    ALL  0       0  
M  SED   2 IMPL_H1
M  END
> <IC50(uM)>
0.434

> <Outcome>
1.0

> <BindingDB ID>
50555412

> <BindingDB MonomerID>
50211938

> <BindingDB Ligand Name>
CHEMBL3955618

> <Curation/DataSource>
ChEMBL

> <Article DOI>
10.1016/j.bmc.2017.01.009

> <PMID>
28118956

> <Patent Number>
?

> <Authors>
Inaoka, DK; Iida, M; Hashimoto, S; Tabuchi, T; Kuranaga, T; Balogun, EO; Honma, T; Tanaka, A; Harada, S; Nara, T; Kita, K; Inoue, M

> <Link to Ligand in BindingDB>
http://www.bindingdb.org/bind/chemsearch/marvin/MolStructure.jsp?monomerid=50211938

> <Link to Ligand-Target Pair in BindingDB>
http://www.bindingdb.org/jsp/dbsearch/PrimarySearch_ki.jsp?energyterm=kJ/mole&tag=r21&monomerid=50211938&enzyme=Dihydroorotate+dehydrogenase&column=ki&startPg=0&Increment=50&submit=Search

> <PubChem CID>
134143855

> <PubChem SID>
104088016

$$$$

  Mrv2115 07222212352D          

 29 30  0  0  0  0            999 V2000
    1.4289   -6.6000    0.0000 C   0  0  0  0  0  0  0  0  0  0  0  0
    2.1434   -6.1875    0.0000 C   0  0  0  0  0  0  0  0  0  0  0  0
    2.8579   -6.6000    0.0000 C   0  0  0  0  0  0  0  0  0  0  0  0
    2.8579   -7.4250    0.0000 O   0  0  0  0  0  0  0  0  0  0  0  0
    3.5724   -6.1875    0.0000 C   0  0  0  0  0  0  0  0  0  0  0  0
    3.5724   -5.3625    0.0000 C   0  0  0  0  0  0  0  0  0  0  0  0
    3.5724   -4.5375    0.0000 N   0  0  0  0  0  0  0  0  0  0  0  0
    4.2868   -6.6000    0.0000 C   0  0  0  0  0  0  0  0  0  0  0  0
    4.2868   -7.4250    0.0000 O   0  0  0  0  0  0  0  0  0  0  0  0
    5.0013   -6.1875    0.0000 N   0  0  0  0  0  0  0  0  0  0  0  0
    5.7158   -6.6000    0.0000 C   0  0  0  0  0  0  0  0  0  0  0  0
    5.7158   -7.4250    0.0000 C   0  0  0  0  0  0  0  0  0  0  0  0
    6.4302   -7.8375    0.0000 C   0  0  0  0  0  0  0  0  0  0  0  0
    7.1447   -7.4250    0.0000 C   0  0  0  0  0  0  0  0  0  0  0  0
    7.8592   -7.8375    0.0000 C   0  0  0  0  0  0  0  0  0  0  0  0
    8.5737   -7.4250    0.0000 C   0  0  0  0  0  0  0  0  0  0  0  0
    9.2881   -7.8375    0.0000 C   0  0  0  0  0  0  0  0  0  0  0  0
    9.2881   -8.6625    0.0000 C   0  0  0  0  0  0  0  0  0  0  0  0
   10.0026   -9.0750    0.0000 F   0  0  0  0  0  0  0  0  0  0  0  0
    8.5737   -9.0750    0.0000 C   0  0  0  0  0  0  0  0  0  0  0  0
    7.8592   -8.6625    0.0000 C   0  0  0  0  0  0  0  0  0  0  0  0
    7.1447   -9.0750    0.0000 O   0  0  0  0  0  0  0  0  0  0  0  0
    6.4302   -8.6625    0.0000 C   0  0  0  0  0  0  0  0  0  0  0  0
    7.1447   -6.6000    0.0000 C   0  0  0  0  0  0  0  0  0  0  0  0
    7.8592   -6.1875    0.0000 C   0  0  0  0  0  0  0  0  0  0  0  0
    8.5737   -6.6000    0.0000 O   0  0  0  0  0  0  0  0  0  0  0  0
    7.8592   -5.3625    0.0000 O   0  0  0  0  0  0  0  0  0  0  0  0
    8.5737   -4.9500    0.0000 C   0  0  0  0  0  0  0  0  0  0  0  0
    6.4302   -6.1875    0.0000 C   0  0  0  0  0  0  0  0  0  0  0  0
  1  2  1  0  0  0  0
  2  3  1  0  0  0  0
  3  4  2  0  0  0  0
  3  5  1  0  0  0  0
  5  6  1  0  0  0  0
  6  7  3  0  0  0  0
  5  8  1  0  0  0  0
  8  9  2  0  0  0  0
  8 10  1  0  0  0  0
 10 11  1  0  0  0  0
 11 12  4  0  0  0  0
 12 13  4  0  0  0  0
 13 14  4  0  0  0  0
 14 15  1  0  0  0  0
 15 16  4  0  0  0  0
 16 17  4  0  0  0  0
 17 18  4  0  0  0  0
 18 19  1  0  0  0  0
 18 20  4  0  0  0  0
 20 21  4  0  0  0  0
 15 21  4  0  0  0  0
 21 22  1  0  0  0  0
 22 23  1  0  0  0  0
 14 24  4  0  0  0  0
 24 25  1  0  0  0  0
 25 26  2  0  0  0  0
 25 27  1  0  0  0  0
 27 28  1  0  0  0  0
 24 29  4  0  0  0  0
 11 29  4  0  0  0  0
M  END
> <IC50(uM)>
0.066

> <Outcome>
1.0

> <BindingDB ID>
50707382

> <BindingDB MonomerID>
50359703

> <BindingDB Ligand Name>
CHEMBL1929447

> <Curation/DataSource>
ChEMBL

> <Article DOI>
10.1016/j.bmcl.2011.10.052

> <PMID>
22078215

> <Patent Number>
?

> <Authors>
Erra, M; Moreno, I; Sanahuja, J; Andres, M; Reinoso, RF; Lozoya, E; Pizcueta, P; Godessart, N; Castro-Palomino, JC

> <Link to Ligand in BindingDB>
http://www.bindingdb.org/bind/chemsearch/marvin/MolStructure.jsp?monomerid=50359703

> <Link to Ligand-Target Pair in BindingDB>
http://www.bindingdb.org/jsp/dbsearch/PrimarySearch_ki.jsp?energyterm=kJ/mole&tag=r21&monomerid=50359703&enzyme=Dihydroorotate+dehydrogenase&column=ki&startPg=0&Increment=50&submit=Search

> <PubChem CID>
91930451

> <PubChem SID>
136963727

$$$$

  Mrv2115 07222212352D          

 35 40  0  0  0  0            999 V2000
    0.1536    1.3672    0.0000 O   0  0  0  0  0  0  0  0  0  0  0  0
   -0.3984    0.7541    0.0000 C   0  0  0  0  0  0  0  0  0  0  0  0
   -1.2054    0.9256    0.0000 N   0  0  0  0  0  0  0  0  0  0  0  0
   -1.4604    1.7103    0.0000 C   0  0  0  0  0  0  0  0  0  0  0  0
   -2.2673    1.8818    0.0000 C   0  0  0  0  0  0  0  0  0  0  0  0
   -2.5223    2.6664    0.0000 C   0  0  0  0  0  0  0  0  0  0  0  0
   -1.9702    3.2795    0.0000 C   0  0  0  0  0  0  0  0  0  0  0  0
   -1.1633    3.1080    0.0000 C   0  0  0  0  0  0  0  0  0  0  0  0
   -0.9083    2.3234    0.0000 C   0  0  0  0  0  0  0  0  0  0  0  0
   -0.0833    2.3234    0.0000 C   0  0  0  0  0  0  0  0  0  0  0  0
    0.1716    3.1080    0.0000 N   0  0  0  0  0  0  0  0  0  0  0  0
   -0.4958    3.5929    0.0000 N   0  0  0  0  0  0  0  0  0  0  0  0
   -0.4958    4.4179    0.0000 C   0  0  0  0  0  0  0  0  0  0  0  0
   -1.2103    4.8304    0.0000 C   0  0  0  0  0  0  0  0  0  0  0  0
   -1.2103    5.6554    0.0000 C   0  0  0  0  0  0  0  0  0  0  0  0
   -0.4958    6.0679    0.0000 C   0  0  0  0  0  0  0  0  0  0  0  0
    0.2186    5.6554    0.0000 C   0  0  0  0  0  0  0  0  0  0  0  0
    0.9331    6.0679    0.0000 C   0  0  0  0  0  0  0  0  0  0  0  0
    1.6476    5.6554    0.0000 O   0  0  0  0  0  0  0  0  0  0  0  0
    0.9331    6.8929    0.0000 N   0  0  0  0  0  0  0  0  0  0  0  0
    0.2186    7.3054    0.0000 C   0  0  0  0  0  0  0  0  0  0  0  0
    0.2186    8.1304    0.0000 C   0  0  0  0  0  0  0  0  0  0  0  0
    0.9331    8.5429    0.0000 O   0  0  0  0  0  0  0  0  0  0  0  0
    1.6476    8.1304    0.0000 C   0  0  0  0  0  0  0  0  0  0  0  0
    1.6476    7.3054    0.0000 C   0  0  0  0  0  0  0  0  0  0  0  0
    0.2186    4.8304    0.0000 C   0  0  0  0  0  0  0  0  0  0  0  0
   -0.1435   -0.0305    0.0000 C   0  0  0  0  0  0  0  0  0  0  0  0
   -0.6284   -0.6979    0.0000 N   0  0  0  0  0  0  0  0  0  0  0  0
   -0.1435   -1.3654    0.0000 O   0  0  0  0  0  0  0  0  0  0  0  0
    0.6411   -1.1104    0.0000 C   0  0  0  0  0  0  0  0  0  0  0  0
    0.6411   -0.2854    0.0000 C   0  0  0  0  0  0  0  0  0  0  0  0
    1.3556    0.1271    0.0000 C   0  0  0  0  0  0  0  0  0  0  0  0
    2.0701   -0.2854    0.0000 C   0  0  0  0  0  0  0  0  0  0  0  0
    2.0701   -1.1104    0.0000 C   0  0  0  0  0  0  0  0  0  0  0  0
    1.3556   -1.5229    0.0000 C   0  0  0  0  0  0  0  0  0  0  0  0
  1  2  2  0  0  0  0
  2  3  1  0  0  0  0
  3  4  1  0  0  0  0
  4  5  1  0  0  0  0
  5  6  1  0  0  0  0
  6  7  1  0  0  0  0
  7  8  1  0  0  0  0
  8  9  4  0  0  0  0
  4  9  1  0  0  0  0
  9 10  4  0  0  0  0
 10 11  4  0  0  0  0
 11 12  4  0  0  0  0
  8 12  4  0  0  0  0
 12 13  1  0  0  0  0
 13 14  4  0  0  0  0
 14 15  4  0  0  0  0
 15 16  4  0  0  0  0
 16 17  4  0  0  0  0
 17 18  1  0  0  0  0
 18 19  2  0  0  0  0
 18 20  1  0  0  0  0
 20 21  1  0  0  0  0
 21 22  1  0  0  0  0
 22 23  1  0  0  0  0
 23 24  1  0  0  0  0
 24 25  1  0  0  0  0
 20 25  1  0  0  0  0
 17 26  4  0  0  0  0
 13 26  4  0  0  0  0
  2 27  1  0  0  0  0
 27 28  4  0  0  0  0
 28 29  4  0  0  0  0
 29 30  4  0  0  0  0
 30 31  4  0  0  0  0
 27 31  4  0  0  0  0
 31 32  1  0  0  0  0
 32 33  1  0  0  0  0
 33 34  1  0  0  0  0
 34 35  1  0  0  0  0
 30 35  1  0  0  0  0
M  END
> <IC50(uM)>
0.22

> <Outcome>
1.0

> <BindingDB ID>
993121

> <BindingDB MonomerID>
477623

> <BindingDB Ligand Name>
US10889564, Example 53

> <Curation/DataSource>
US Patent

> <Article DOI>
?

> <PMID>
?

> <Patent Number>
US10889564

> <Authors>
Lain, S; Drummond, C; Leeuwen, IV; Haraldsson, M; Johansson, L; Sandberg, L; Yngve, U

> <Link to Ligand in BindingDB>
http://www.bindingdb.org/bind/chemsearch/marvin/MolStructure.jsp?monomerid=477623

> <Link to Ligand-Target Pair in BindingDB>
http://www.bindingdb.org/jsp/dbsearch/PrimarySearch_ki.jsp?energyterm=kJ/mole&tag=r21&monomerid=477623&enzyme=Dihydroorotate+dehydrogenase&column=ki&startPg=0&Increment=50&submit=Search

> <PubChem CID>
129104669

> <PubChem SID>
442137240

$$$$

  Mrv2115 07222212352D          

 20 22  0  0  0  0            999 V2000
    4.0668    2.3479    0.0000 C   0  0  0  0  0  0  0  0  0  0  0  0
    3.3523    1.9354    0.0000 C   0  0  0  0  0  0  0  0  0  0  0  0
    3.3523    1.1104    0.0000 C   0  0  0  0  0  0  0  0  0  0  0  0
    2.6378    0.6979    0.0000 C   0  0  0  0  0  0  0  0  0  0  0  0
    2.6378   -0.1271    0.0000 O   0  0  0  0  0  0  0  0  0  0  0  0
    1.9233    1.1104    0.0000 N   0  0  0  0  0  0  0  0  0  0  0  0
    1.1387    0.8555    0.0000 N   0  0  0  0  0  0  0  0  0  0  0  0
    0.6538    1.5229    0.0000 C   0  0  0  0  0  0  0  0  0  0  0  0
   -0.1712    1.5229    0.0000 S   0  0  0  0  0  0  0  0  0  0  0  0
   -0.5837    0.8085    0.0000 C   0  0  0  0  0  0  0  0  0  0  0  0
   -1.4087    0.8085    0.0000 C   0  0  0  0  0  0  0  0  0  0  0  0
   -1.8212    0.0940    0.0000 C   0  0  0  0  0  0  0  0  0  0  0  0
   -2.6462    0.0940    0.0000 C   0  0  0  0  0  0  0  0  0  0  0  0
   -3.0587    0.8085    0.0000 C   0  0  0  0  0  0  0  0  0  0  0  0
   -3.8837    0.8085    0.0000 Cl  0  0  0  0  0  0  0  0  0  0  0  0
   -2.6462    1.5229    0.0000 C   0  0  0  0  0  0  0  0  0  0  0  0
   -1.8212    1.5229    0.0000 C   0  0  0  0  0  0  0  0  0  0  0  0
    1.1387    2.1904    0.0000 N   0  0  0  0  0  0  0  0  0  0  0  0
    1.9233    1.9354    0.0000 C   0  0  0  0  0  0  0  0  0  0  0  0
    2.6378    2.3479    0.0000 N   0  0  0  0  0  0  0  0  0  0  0  0
  1  2  1  0  0  0  0
  2  3  4  0  0  0  0
  3  4  4  0  0  0  0
  4  5  2  0  0  0  0
  4  6  4  0  0  0  0
  6  7  4  0  0  0  0
  7  8  4  0  0  0  0
  8  9  1  0  0  0  0
  9 10  1  0  0  0  0
 10 11  1  0  0  0  0
 11 12  4  0  0  0  0
 12 13  4  0  0  0  0
 13 14  4  0  0  0  0
 14 15  1  0  0  0  0
 14 16  4  0  0  0  0
 16 17  4  0  0  0  0
 11 17  4  0  0  0  0
  8 18  4  0  0  0  0
 18 19  4  0  0  0  0
  6 19  4  0  0  0  0
 19 20  4  0  0  0  0
  2 20  4  0  0  0  0
M  STY  1   1 DAT
M  SAL   1  1   7
M  SDT   1 MRV_IMPLICIT_H                                        
M  SDD   1     0.5304   -0.4125    DR    ALL  0       0  
M  SED   1 IMPL_H1
M  END
> <IC50(uM)>
39.0

> <Outcome>
0.0

> <BindingDB ID>
50970256

> <BindingDB MonomerID>
50397829

> <BindingDB Ligand Name>
CHEMBL1704856

> <Curation/DataSource>
ChEMBL

> <Article DOI>
10.1021/jm300157n

> <PMID>
22621375

> <Patent Number>
?

> <Authors>
Bedingfield, PT; Cowen, D; Acklam, P; Cunningham, F; Parsons, MR; McConkey, GA; Fishwick, CW; Johnson, AP

> <Link to Ligand in BindingDB>
http://www.bindingdb.org/bind/chemsearch/marvin/MolStructure.jsp?monomerid=50397829

> <Link to Ligand-Target Pair in BindingDB>
http://www.bindingdb.org/jsp/dbsearch/PrimarySearch_ki.jsp?energyterm=kJ/mole&tag=r21&monomerid=50397829&enzyme=Dihydroorotate+dehydrogenase&column=ki&startPg=0&Increment=50&submit=Search

> <PubChem CID>
2743369

> <PubChem SID>
163346853

$$$$

  Mrv2115 07222212352D          

 26 29  0  0  0  0            999 V2000
    2.1434   -3.7125    0.0000 C   0  0  0  0  0  0  0  0  0  0  0  0
    2.1434   -2.8875    0.0000 O   0  0  0  0  0  0  0  0  0  0  0  0
    1.4289   -2.4750    0.0000 C   0  0  0  0  0  0  0  0  0  0  0  0
    0.7145   -2.8875    0.0000 O   0  0  0  0  0  0  0  0  0  0  0  0
    1.4289   -1.6500    0.0000 C   0  0  0  0  0  0  0  0  0  0  0  0
    0.7145   -1.2375    0.0000 C   0  0  0  0  0  0  0  0  0  0  0  0
    0.7145   -0.4125    0.0000 C   0  0  0  0  0  0  0  0  0  0  0  0
    0.0000    0.0000    0.0000 C   0  0  0  0  0  0  0  0  0  0  0  0
   -0.7145   -0.4125    0.0000 C   0  0  0  0  0  0  0  0  0  0  0  0
   -1.4289    0.0000    0.0000 C   0  0  0  0  0  0  0  0  0  0  0  0
   -1.4289    0.8250    0.0000 C   0  0  0  0  0  0  0  0  0  0  0  0
   -2.1434    1.2375    0.0000 C   0  0  0  0  0  0  0  0  0  0  0  0
   -2.8579    0.8250    0.0000 C   0  0  0  0  0  0  0  0  0  0  0  0
   -3.5724    1.2375    0.0000 C   0  0  0  0  0  0  0  0  0  0  0  0
   -3.5724    2.0625    0.0000 C   0  0  0  0  0  0  0  0  0  0  0  0
   -2.8579    2.4750    0.0000 C   0  0  0  0  0  0  0  0  0  0  0  0
   -2.1434    2.0625    0.0000 C   0  0  0  0  0  0  0  0  0  0  0  0
   -0.7145    1.2375    0.0000 C   0  0  0  0  0  0  0  0  0  0  0  0
    0.0000    0.8250    0.0000 C   0  0  0  0  0  0  0  0  0  0  0  0
    1.4289    0.0000    0.0000 N   0  0  0  0  0  0  0  0  0  0  0  0
    2.1434   -0.4125    0.0000 C   0  0  0  0  0  0  0  0  0  0  0  0
    2.8579    0.0000    0.0000 C   0  0  0  0  0  0  0  0  0  0  0  0
    3.5724   -0.4125    0.0000 C   0  0  0  0  0  0  0  0  0  0  0  0
    3.5724   -1.2375    0.0000 C   0  0  0  0  0  0  0  0  0  0  0  0
    2.8579   -1.6500    0.0000 C   0  0  0  0  0  0  0  0  0  0  0  0
    2.1434   -1.2375    0.0000 C   0  0  0  0  0  0  0  0  0  0  0  0
  1  2  1  0  0  0  0
  2  3  1  0  0  0  0
  3  4  2  0  0  0  0
  3  5  1  0  0  0  0
  5  6  4  0  0  0  0
  6  7  4  0  0  0  0
  7  8  1  0  0  0  0
  8  9  4  0  0  0  0
  9 10  4  0  0  0  0
 10 11  4  0  0  0  0
 11 12  1  0  0  0  0
 12 13  4  0  0  0  0
 13 14  4  0  0  0  0
 14 15  4  0  0  0  0
 15 16  4  0  0  0  0
 16 17  4  0  0  0  0
 12 17  4  0  0  0  0
 11 18  4  0  0  0  0
 18 19  4  0  0  0  0
  8 19  4  0  0  0  0
  7 20  4  0  0  0  0
 20 21  4  0  0  0  0
 21 22  4  0  0  0  0
 22 23  4  0  0  0  0
 23 24  4  0  0  0  0
 24 25  4  0  0  0  0
 25 26  4  0  0  0  0
  5 26  4  0  0  0  0
 21 26  4  0  0  0  0
M  END
> <IC50(uM)>
200.0

> <Outcome>
0.0

> <BindingDB ID>
51126198

> <BindingDB MonomerID>
50461884

> <BindingDB Ligand Name>
CHEMBL4225152

> <Curation/DataSource>
ChEMBL

> <Article DOI>
10.1021/acs.jmedchem.7b01862

> <PMID>
29727569

> <Patent Number>
?

> <Authors>
Madak, JT; Cuthbertson, CR; Miyata, Y; Tamura, S; Petrunak, EM; Stuckey, JA; Han, Y; He, M; Sun, D; Showalter, HD; Neamati, N

> <Link to Ligand in BindingDB>
http://www.bindingdb.org/bind/chemsearch/marvin/MolStructure.jsp?monomerid=50461884

> <Link to Ligand-Target Pair in BindingDB>
http://www.bindingdb.org/jsp/dbsearch/PrimarySearch_ki.jsp?energyterm=kJ/mole&tag=r21&monomerid=50461884&enzyme=Dihydroorotate+dehydrogenase&column=ki&startPg=0&Increment=50&submit=Search

> <PubChem CID>
5184531

> <PubChem SID>
433929149

$$$$

  Mrv2115 07222212352D          

 25 27  0  0  0  0            999 V2000
   -0.7145    1.2375    0.0000 C   0  0  0  0  0  0  0  0  0  0  0  0
    0.0000    0.8250    0.0000 C   0  0  0  0  0  0  0  0  0  0  0  0
    0.0000   -0.0000    0.0000 O   0  0  0  0  0  0  0  0  0  0  0  0
    0.7145   -0.4125    0.0000 C   0  0  0  0  0  0  0  0  0  0  0  0
    1.4289   -0.0000    0.0000 O   0  0  0  0  0  0  0  0  0  0  0  0
    0.7145   -1.2375    0.0000 C   0  0  0  0  0  0  0  0  0  0  0  0
    1.3819   -1.7224    0.0000 S   0  0  0  0  0  0  0  0  0  0  0  0
    1.1270   -2.5070    0.0000 C   0  0  0  0  0  0  0  0  0  0  0  0
    1.6119   -3.1745    0.0000 N   0  0  0  0  0  0  0  0  0  0  0  0
    1.2763   -3.9282    0.0000 C   0  0  0  0  0  0  0  0  0  0  0  0
    1.7613   -4.5956    0.0000 C   0  0  0  0  0  0  0  0  0  0  0  0
    1.4257   -5.3493    0.0000 C   0  0  0  0  0  0  0  0  0  0  0  0
    0.6052   -5.4355    0.0000 C   0  0  0  0  0  0  0  0  0  0  0  0
    0.2697   -6.1892    0.0000 Br  0  0  0  0  0  0  0  0  0  0  0  0
    0.1203   -4.7681    0.0000 C   0  0  0  0  0  0  0  0  0  0  0  0
    0.4559   -4.0144    0.0000 C   0  0  0  0  0  0  0  0  0  0  0  0
   -0.0291   -3.3470    0.0000 C   0  0  0  0  0  0  0  0  0  0  0  0
    0.3020   -2.5070    0.0000 N   0  0  0  0  0  0  0  0  0  0  0  0
    0.0470   -1.7224    0.0000 C   0  0  0  0  0  0  0  0  0  0  0  0
   -0.7376   -1.4675    0.0000 C   0  0  0  0  0  0  0  0  0  0  0  0
   -1.3507   -2.0195    0.0000 C   0  0  0  0  0  0  0  0  0  0  0  0
   -2.1353   -1.7646    0.0000 C   0  0  0  0  0  0  0  0  0  0  0  0
   -2.3068   -0.9576    0.0000 C   0  0  0  0  0  0  0  0  0  0  0  0
   -1.6937   -0.4056    0.0000 C   0  0  0  0  0  0  0  0  0  0  0  0
   -0.9091   -0.6605    0.0000 C   0  0  0  0  0  0  0  0  0  0  0  0
  1  2  1  0  0  0  0
  2  3  1  0  0  0  0
  3  4  1  0  0  0  0
  4  5  2  0  0  0  0
  4  6  1  0  0  0  0
  6  7  4  0  0  0  0
  7  8  4  0  0  0  0
  8  9  1  0  0  0  0
  9 10  1  0  0  0  0
 10 11  4  0  0  0  0
 11 12  4  0  0  0  0
 12 13  4  0  0  0  0
 13 14  1  0  0  0  0
 13 15  4  0  0  0  0
 15 16  4  0  0  0  0
 10 16  4  0  0  0  0
 16 17  1  0  0  0  0
  8 18  4  0  0  0  0
 18 19  4  0  0  0  0
  6 19  4  0  0  0  0
 19 20  1  0  0  0  0
 20 21  4  0  0  0  0
 21 22  4  0  0  0  0
 22 23  4  0  0  0  0
 23 24  4  0  0  0  0
 24 25  4  0  0  0  0
 20 25  4  0  0  0  0
M  END
> <IC50(uM)>
10.0

> <Outcome>
0.0

> <BindingDB ID>
50312259

> <BindingDB MonomerID>
50071584

> <BindingDB Ligand Name>
CHEMBL3410606

> <Curation/DataSource>
ChEMBL

> <Article DOI>
10.1021/jm501127s

> <PMID>
25580811

> <Patent Number>
?

> <Authors>
Zhu, J; Han, L; Diao, Y; Ren, X; Xu, M; Xu, L; Li, S; Li, Q; Dong, D; Huang, J; Liu, X; Zhao, Z; Wang, R; Zhu, L; Xu, Y; Qian, X; Li, H

> <Link to Ligand in BindingDB>
http://www.bindingdb.org/bind/chemsearch/marvin/MolStructure.jsp?monomerid=50071584

> <Link to Ligand-Target Pair in BindingDB>
http://www.bindingdb.org/jsp/dbsearch/PrimarySearch_ki.jsp?energyterm=kJ/mole&tag=r21&monomerid=50071584&enzyme=Dihydroorotate+dehydrogenase&column=ki&startPg=0&Increment=50&submit=Search

> <PubChem CID>
118732517

> <PubChem SID>
103965312

$$$$

  Mrv2115 07222212352D          

 30 33  0  0  0  0            999 V2000
    0.7145   -2.8875    0.0000 C   0  0  0  0  0  0  0  0  0  0  0  0
    0.0000   -2.4750    0.0000 C   0  0  0  0  0  0  0  0  0  0  0  0
   -0.7145   -2.8875    0.0000 C   0  0  0  0  0  0  0  0  0  0  0  0
   -1.4289   -2.4750    0.0000 C   0  0  0  0  0  0  0  0  0  0  0  0
   -1.4289   -1.6500    0.0000 C   0  0  0  0  0  0  0  0  0  0  0  0
   -0.7145   -1.2375    0.0000 C   0  0  0  0  0  0  0  0  0  0  0  0
    0.0000   -1.6500    0.0000 C   0  0  0  0  0  0  0  0  0  0  0  0
    0.7145   -1.2375    0.0000 N   0  0  0  0  0  0  0  0  0  0  0  0
    0.7145   -0.4125    0.0000 C   0  0  0  0  0  0  0  0  0  0  0  0
    1.4289    0.0000    0.0000 C   0  0  0  0  0  0  0  0  0  0  0  0
    1.4289    0.8250    0.0000 C   0  0  0  0  0  0  0  0  0  0  0  0
    2.1434    1.2375    0.0000 C   0  0  0  0  0  0  0  0  0  0  0  0
    0.7145    1.2375    0.0000 C   0  0  0  0  0  0  0  0  0  0  0  0
    2.1434   -0.4125    0.0000 C   0  0  0  0  0  0  0  0  0  0  0  0
    2.8579    0.0000    0.0000 C   0  0  0  0  0  0  0  0  0  0  0  0
    3.5724   -0.4125    0.0000 C   0  0  0  0  0  0  0  0  0  0  0  0
    4.2868   -0.0000    0.0000 C   0  0  0  0  0  0  0  0  0  0  0  0
    4.2868    0.8250    0.0000 C   0  0  0  0  0  0  0  0  0  0  0  0
    5.0013    1.2375    0.0000 C   0  0  0  0  0  0  0  0  0  0  0  0
    5.7158    0.8250    0.0000 C   0  0  0  0  0  0  0  0  0  0  0  0
    6.4302    1.2375    0.0000 C   0  0  0  0  0  0  0  0  0  0  0  0
    5.7158   -0.0000    0.0000 C   0  0  0  0  0  0  0  0  0  0  0  0
    6.4302   -0.4125    0.0000 N   0  0  0  0  0  0  0  0  0  0  0  0
    5.0013   -0.4125    0.0000 N   0  0  0  0  0  0  0  0  0  0  0  0
    3.5724   -1.2375    0.0000 C   0  0  0  0  0  0  0  0  0  0  0  0
    4.2868   -1.6500    0.0000 F   0  0  0  0  0  0  0  0  0  0  0  0
    2.8579   -1.6500    0.0000 C   0  0  0  0  0  0  0  0  0  0  0  0
    2.1434   -1.2375    0.0000 C   0  0  0  0  0  0  0  0  0  0  0  0
    1.4289   -1.6500    0.0000 C   0  0  0  0  0  0  0  0  0  0  0  0
    1.4289   -2.4750    0.0000 O   0  0  0  0  0  0  0  0  0  0  0  0
  1  2  1  0  0  0  0
  2  3  4  0  0  0  0
  3  4  4  0  0  0  0
  4  5  4  0  0  0  0
  5  6  4  0  0  0  0
  6  7  4  0  0  0  0
  2  7  4  0  0  0  0
  7  8  1  0  0  0  0
  8  9  4  0  0  0  0
  9 10  4  0  0  0  0
 10 11  1  0  0  0  0
 11 12  1  0  0  0  0
 11 13  1  0  0  0  0
 10 14  4  0  0  0  0
 14 15  4  0  0  0  0
 15 16  4  0  0  0  0
 16 17  1  0  0  0  0
 17 18  4  0  0  0  0
 18 19  4  0  0  0  0
 19 20  4  0  0  0  0
 20 21  1  0  0  0  0
 20 22  4  0  0  0  0
 22 23  1  0  0  0  0
 22 24  4  0  0  0  0
 17 24  4  0  0  0  0
 16 25  4  0  0  0  0
 25 26  1  0  0  0  0
 25 27  4  0  0  0  0
 27 28  4  0  0  0  0
 14 28  4  0  0  0  0
 28 29  4  0  0  0  0
  8 29  4  0  0  0  0
 29 30  2  0  0  0  0
M  END
> <IC50(uM)>
1.7999999999999998E-4

> <Outcome>
1.0

> <BindingDB ID>
1121364

> <BindingDB MonomerID>
530430

> <BindingDB Ligand Name>
6-(6-Amino-5-methylpyridin-2-yl)-7-fluoro-4-isopropyl-2-(o-tolyl)isoquinolin- 1(2H)-one.::WO2022070068, Example 2

> <Curation/DataSource>
Curated from the literature by BindingDB

> <Article DOI>
?

> <PMID>
WO2022070068

> <Patent Number>
?

> <Authors>
Lindsey, D; Scott, K; Zhuming, Z

> <Link to Ligand in BindingDB>
http://www.bindingdb.org/bind/chemsearch/marvin/MolStructure.jsp?monomerid=530430

> <Link to Ligand-Target Pair in BindingDB>
http://www.bindingdb.org/jsp/dbsearch/PrimarySearch_ki.jsp?energyterm=kJ/mole&tag=r21&monomerid=530430&enzyme=Dihydroorotate+dehydrogenase&column=ki&startPg=0&Increment=50&submit=Search

> <PubChem CID>
?

> <PubChem SID>
?

$$$$

  Mrv2115 07222212352D          

 25 27  0  0  0  0            999 V2000
   -1.3222    0.7634    0.0000 C   0  0  0  0  0  0  0  0  0  0  0  0
   -1.3222   -0.0616    0.0000 C   0  0  0  0  0  0  0  0  0  0  0  0
   -0.6078   -0.4741    0.0000 O   0  0  0  0  0  0  0  0  0  0  0  0
   -0.6078   -1.2991    0.0000 C   0  0  0  0  0  0  0  0  0  0  0  0
   -1.2752   -1.7840    0.0000 N   0  0  0  0  0  0  0  0  0  0  0  0
   -1.0203   -2.5687    0.0000 N   0  0  0  0  0  0  0  0  0  0  0  0
   -1.5052   -3.2361    0.0000 C   0  0  0  0  0  0  0  0  0  0  0  0
   -1.1696   -3.9898    0.0000 N   0  0  0  0  0  0  0  0  0  0  0  0
   -1.6546   -4.6572    0.0000 C   0  0  0  0  0  0  0  0  0  0  0  0
   -2.4750   -4.5710    0.0000 C   0  0  0  0  0  0  0  0  0  0  0  0
   -2.9600   -5.2384    0.0000 C   0  0  0  0  0  0  0  0  0  0  0  0
   -3.7804   -5.1522    0.0000 C   0  0  0  0  0  0  0  0  0  0  0  0
   -2.8106   -3.8173    0.0000 C   0  0  0  0  0  0  0  0  0  0  0  0
   -2.3257   -3.1499    0.0000 N   0  0  0  0  0  0  0  0  0  0  0  0
   -0.1953   -2.5687    0.0000 C   0  0  0  0  0  0  0  0  0  0  0  0
    0.2897   -3.2361    0.0000 C   0  0  0  0  0  0  0  0  0  0  0  0
    0.0597   -1.7840    0.0000 C   0  0  0  0  0  0  0  0  0  0  0  0
    0.8443   -1.5291    0.0000 O   0  0  0  0  0  0  0  0  0  0  0  0
    1.0158   -0.7221    0.0000 C   0  0  0  0  0  0  0  0  0  0  0  0
    0.4027   -0.1701    0.0000 C   0  0  0  0  0  0  0  0  0  0  0  0
    0.5743    0.6369    0.0000 C   0  0  0  0  0  0  0  0  0  0  0  0
    1.3589    0.8918    0.0000 C   0  0  0  0  0  0  0  0  0  0  0  0
    1.9720    0.3398    0.0000 C   0  0  0  0  0  0  0  0  0  0  0  0
    1.8004   -0.4672    0.0000 C   0  0  0  0  0  0  0  0  0  0  0  0
    2.4135   -1.0192    0.0000 Br  0  0  0  0  0  0  0  0  0  0  0  0
  1  2  1  0  0  0  0
  2  3  1  0  0  0  0
  3  4  1  0  0  0  0
  4  5  4  0  0  0  0
  5  6  4  0  0  0  0
  6  7  1  0  0  0  0
  7  8  4  0  0  0  0
  8  9  4  0  0  0  0
  9 10  4  0  0  0  0
 10 11  1  0  0  0  0
 11 12  1  0  0  0  0
 10 13  4  0  0  0  0
 13 14  4  0  0  0  0
  7 14  4  0  0  0  0
  6 15  4  0  0  0  0
 15 16  1  0  0  0  0
 15 17  4  0  0  0  0
  4 17  4  0  0  0  0
 17 18  1  0  0  0  0
 18 19  1  0  0  0  0
 19 20  4  0  0  0  0
 20 21  4  0  0  0  0
 21 22  4  0  0  0  0
 22 23  4  0  0  0  0
 23 24  4  0  0  0  0
 19 24  4  0  0  0  0
 24 25  1  0  0  0  0
M  END
> <IC50(uM)>
0.126

> <Outcome>
1.0

> <BindingDB ID>
50311220

> <BindingDB MonomerID>
50070907

> <BindingDB Ligand Name>
CHEMBL3409306

> <Curation/DataSource>
ChEMBL

> <Article DOI>
10.1021/jm501446r

> <PMID>
25558988

> <Patent Number>
?

> <Authors>
Munier-Lehmann, H; Lucas-Hourani, M; Guillou, S; Helynck, O; Zanghi, G; Noel, A; Tangy, F; Vidalain, PO; Janin, YL

> <Link to Ligand in BindingDB>
http://www.bindingdb.org/bind/chemsearch/marvin/MolStructure.jsp?monomerid=50070907

> <Link to Ligand-Target Pair in BindingDB>
http://www.bindingdb.org/jsp/dbsearch/PrimarySearch_ki.jsp?energyterm=kJ/mole&tag=r21&monomerid=50070907&enzyme=Dihydroorotate+dehydrogenase&column=ki&startPg=0&Increment=50&submit=Search

> <PubChem CID>
118430627

> <PubChem SID>
103964734

$$$$

  Mrv2115 07222212352D          

 24 26  0  0  0  0            999 V2000
   -1.4087    0.0165    0.0000 C   0  0  0  0  0  0  0  0  0  0  0  0
   -0.5837    0.0165    0.0000 C   0  0  0  0  0  0  0  0  0  0  0  0
   -0.1712   -0.6979    0.0000 O   0  0  0  0  0  0  0  0  0  0  0  0
    0.6538   -0.6979    0.0000 C   0  0  0  0  0  0  0  0  0  0  0  0
    1.1387   -0.0305    0.0000 N   0  0  0  0  0  0  0  0  0  0  0  0
    1.9233   -0.2854    0.0000 C   0  0  0  0  0  0  0  0  0  0  0  0
    2.6378    0.1271    0.0000 N   0  0  0  0  0  0  0  0  0  0  0  0
    3.3523   -0.2854    0.0000 C   0  0  0  0  0  0  0  0  0  0  0  0
    4.0668    0.1271    0.0000 C   0  0  0  0  0  0  0  0  0  0  0  0
    3.3523   -1.1104    0.0000 C   0  0  0  0  0  0  0  0  0  0  0  0
    2.6378   -1.5229    0.0000 C   0  0  0  0  0  0  0  0  0  0  0  0
    2.6378   -2.3479    0.0000 N   0  0  0  0  0  0  0  0  0  0  0  0
    1.9233   -2.7604    0.0000 C   0  0  0  0  0  0  0  0  0  0  0  0
    1.9233   -3.5854    0.0000 C   0  0  0  0  0  0  0  0  0  0  0  0
    1.2089   -3.9979    0.0000 C   0  0  0  0  0  0  0  0  0  0  0  0
    0.4944   -3.5854    0.0000 C   0  0  0  0  0  0  0  0  0  0  0  0
   -0.2201   -3.9979    0.0000 C   0  0  0  0  0  0  0  0  0  0  0  0
   -0.9345   -4.4104    0.0000 F   0  0  0  0  0  0  0  0  0  0  0  0
   -0.6326   -3.2835    0.0000 F   0  0  0  0  0  0  0  0  0  0  0  0
    0.1924   -4.7124    0.0000 F   0  0  0  0  0  0  0  0  0  0  0  0
    0.4944   -2.7604    0.0000 C   0  0  0  0  0  0  0  0  0  0  0  0
    1.2089   -2.3479    0.0000 C   0  0  0  0  0  0  0  0  0  0  0  0
    1.9233   -1.1104    0.0000 N   0  0  0  0  0  0  0  0  0  0  0  0
    1.1387   -1.3654    0.0000 N   0  0  0  0  0  0  0  0  0  0  0  0
  1  2  1  0  0  0  0
  2  3  1  0  0  0  0
  3  4  1  0  0  0  0
  4  5  4  0  0  0  0
  5  6  4  0  0  0  0
  6  7  4  0  0  0  0
  7  8  4  0  0  0  0
  8  9  1  0  0  0  0
  8 10  4  0  0  0  0
 10 11  4  0  0  0  0
 11 12  1  0  0  0  0
 12 13  1  0  0  0  0
 13 14  4  0  0  0  0
 14 15  4  0  0  0  0
 15 16  4  0  0  0  0
 16 17  1  0  0  0  0
 17 18  1  0  0  0  0
 17 19  1  0  0  0  0
 17 20  1  0  0  0  0
 16 21  4  0  0  0  0
 21 22  4  0  0  0  0
 13 22  4  0  0  0  0
 11 23  4  0  0  0  0
  6 23  4  0  0  0  0
 23 24  4  0  0  0  0
  4 24  4  0  0  0  0
M  END
> <IC50(uM)>
100.0

> <Outcome>
0.0

> <BindingDB ID>
50720151

> <BindingDB MonomerID>
50365221

> <BindingDB Ligand Name>
CHEMBL1956472

> <Curation/DataSource>
ChEMBL

> <Article DOI>
10.1021/jm200592f

> <PMID>
21696174

> <Patent Number>
?

> <Authors>
Coteron, JM; Marco, M; Esquivias, J; Deng, X; White, KL; White, J; Koltun, M; El Mazouni, F; Kokkonda, S; Katneni, K; Bhamidipati, R; Shackleford, DM; Angulo-Barturen, I; Ferrer, SB; Jimenez-Diaz, MB; Gamo, FJ; Goldsmith, EJ; Charman, WN; Bathurst, I; Floyd, D; Matthews, D; Burrows, JN; Rathod, PK; Charman, SA; Phillips, MA

> <Link to Ligand in BindingDB>
http://www.bindingdb.org/bind/chemsearch/marvin/MolStructure.jsp?monomerid=50365221

> <Link to Ligand-Target Pair in BindingDB>
http://www.bindingdb.org/jsp/dbsearch/PrimarySearch_ki.jsp?energyterm=kJ/mole&tag=r21&monomerid=50365221&enzyme=Dihydroorotate+dehydrogenase&column=ki&startPg=0&Increment=50&submit=Search

> <PubChem CID>
44133769

> <PubChem SID>
136969283

$$$$

  Mrv2115 07222212352D          

 29 32  0  0  0  0            999 V2000
   -6.3587   -1.4124    0.0000 C   0  0  0  0  0  0  0  0  0  0  0  0
   -5.5337   -1.4124    0.0000 C   0  0  0  0  0  0  0  0  0  0  0  0
   -5.1212   -2.1269    0.0000 O   0  0  0  0  0  0  0  0  0  0  0  0
   -5.1212   -0.6979    0.0000 N   0  0  0  0  0  0  0  0  0  0  0  0
   -4.2962   -0.6979    0.0000 C   0  0  0  0  0  0  0  0  0  0  0  0
   -3.8837    0.0165    0.0000 C   0  0  0  0  0  0  0  0  0  0  0  0
   -3.0587    0.0165    0.0000 C   0  0  0  0  0  0  0  0  0  0  0  0
   -2.6462   -0.6979    0.0000 C   0  0  0  0  0  0  0  0  0  0  0  0
   -1.8212   -0.6979    0.0000 C   0  0  0  0  0  0  0  0  0  0  0  0
   -1.4087    0.0165    0.0000 C   0  0  0  0  0  0  0  0  0  0  0  0
   -0.5837    0.0165    0.0000 C   0  0  0  0  0  0  0  0  0  0  0  0
   -0.1712   -0.6979    0.0000 C   0  0  0  0  0  0  0  0  0  0  0  0
    0.6538   -0.6979    0.0000 C   0  0  0  0  0  0  0  0  0  0  0  0
    1.1387   -0.0305    0.0000 N   0  0  0  0  0  0  0  0  0  0  0  0
    1.9233   -0.2854    0.0000 C   0  0  0  0  0  0  0  0  0  0  0  0
    2.6378    0.1271    0.0000 C   0  0  0  0  0  0  0  0  0  0  0  0
    2.6378    0.9521    0.0000 C   0  0  0  0  0  0  0  0  0  0  0  0
    1.9233    1.3646    0.0000 O   0  0  0  0  0  0  0  0  0  0  0  0
    3.3523    1.3646    0.0000 O   0  0  0  0  0  0  0  0  0  0  0  0
    3.3523   -0.2854    0.0000 C   0  0  0  0  0  0  0  0  0  0  0  0
    3.3523   -1.1104    0.0000 C   0  0  0  0  0  0  0  0  0  0  0  0
    4.0668   -1.5229    0.0000 C   0  0  0  0  0  0  0  0  0  0  0  0
    2.6378   -1.5229    0.0000 C   0  0  0  0  0  0  0  0  0  0  0  0
    1.9233   -1.1104    0.0000 C   0  0  0  0  0  0  0  0  0  0  0  0
    1.1387   -1.3654    0.0000 N   0  0  0  0  0  0  0  0  0  0  0  0
   -0.5837   -1.4124    0.0000 C   0  0  0  0  0  0  0  0  0  0  0  0
   -1.4087   -1.4124    0.0000 C   0  0  0  0  0  0  0  0  0  0  0  0
   -3.0587   -1.4124    0.0000 C   0  0  0  0  0  0  0  0  0  0  0  0
   -3.8837   -1.4124    0.0000 C   0  0  0  0  0  0  0  0  0  0  0  0
  1  2  1  0  0  0  0
  2  3  2  0  0  0  0
  2  4  1  0  0  0  0
  4  5  1  0  0  0  0
  5  6  4  0  0  0  0
  6  7  4  0  0  0  0
  7  8  4  0  0  0  0
  8  9  1  0  0  0  0
  9 10  4  0  0  0  0
 10 11  4  0  0  0  0
 11 12  4  0  0  0  0
 12 13  1  0  0  0  0
 13 14  4  0  0  0  0
 14 15  4  0  0  0  0
 15 16  4  0  0  0  0
 16 17  1  0  0  0  0
 17 18  2  0  0  0  0
 17 19  1  0  0  0  0
 16 20  4  0  0  0  0
 20 21  4  0  0  0  0
 21 22  1  0  0  0  0
 21 23  4  0  0  0  0
 23 24  4  0  0  0  0
 15 24  4  0  0  0  0
 24 25  4  0  0  0  0
 13 25  4  0  0  0  0
 12 26  4  0  0  0  0
 26 27  4  0  0  0  0
  9 27  4  0  0  0  0
  8 28  4  0  0  0  0
 28 29  4  0  0  0  0
  5 29  4  0  0  0  0
M  STY  1   1 DAT
M  SAL   1  1  25
M  SDT   1 MRV_IMPLICIT_H                                        
M  SDD   1     0.5304   -0.4125    DR    ALL  0       0  
M  SED   1 IMPL_H1
M  END
> <IC50(uM)>
0.21

> <Outcome>
1.0

> <BindingDB ID>
50358203

> <BindingDB MonomerID>
50096195

> <BindingDB Ligand Name>
CHEMBL3593251

> <Curation/DataSource>
ChEMBL

> <Article DOI>
10.1016/j.bmc.2015.05.051

> <PMID>
26088338

> <Patent Number>
?

> <Authors>
Abdullah, I; Chee, CF; Lee, YK; Thunuguntla, SS; Satish Reddy, K; Nellore, K; Antony, T; Verma, J; Mun, KW; Othman, S; Subramanya, H; Rahman, NA

> <Link to Ligand in BindingDB>
http://www.bindingdb.org/bind/chemsearch/marvin/MolStructure.jsp?monomerid=50096195

> <Link to Ligand-Target Pair in BindingDB>
http://www.bindingdb.org/jsp/dbsearch/PrimarySearch_ki.jsp?energyterm=kJ/mole&tag=r21&monomerid=50096195&enzyme=Dihydroorotate+dehydrogenase&column=ki&startPg=0&Increment=50&submit=Search

> <PubChem CID>
122182176

> <PubChem SID>
103993762

$$$$

  Mrv2115 07222212352D          

 37 41  0  0  0  0            999 V2000
   -5.1659   -2.8414    0.0000 C   0  0  0  0  0  0  0  0  0  0  0  0
   -5.5784   -2.1269    0.0000 C   0  0  0  0  0  0  0  0  0  0  0  0
   -6.4034   -2.1269    0.0000 N   0  0  0  0  0  0  0  0  0  0  0  0
   -6.8159   -1.4124    0.0000 C   0  0  0  0  0  0  0  0  0  0  0  0
   -6.4034   -0.6979    0.0000 N   0  0  0  0  0  0  0  0  0  0  0  0
   -5.5784   -0.6979    0.0000 C   0  0  0  0  0  0  0  0  0  0  0  0
   -5.1659    0.0165    0.0000 C   0  0  0  0  0  0  0  0  0  0  0  0
   -5.1659   -1.4124    0.0000 C   0  0  0  0  0  0  0  0  0  0  0  0
   -4.3409   -1.4124    0.0000 N   0  0  0  0  0  0  0  0  0  0  0  0
   -3.9284   -0.6979    0.0000 C   0  0  0  0  0  0  0  0  0  0  0  0
   -4.3409    0.0165    0.0000 O   0  0  0  0  0  0  0  0  0  0  0  0
   -3.1034   -0.6979    0.0000 C   0  0  0  0  0  0  0  0  0  0  0  0
   -2.6909    0.0165    0.0000 C   0  0  0  0  0  0  0  0  0  0  0  0
   -1.8659    0.0165    0.0000 C   0  0  0  0  0  0  0  0  0  0  0  0
   -1.4534    0.7310    0.0000 F   0  0  0  0  0  0  0  0  0  0  0  0
   -1.4534   -0.6979    0.0000 C   0  0  0  0  0  0  0  0  0  0  0  0
   -0.6284   -0.6979    0.0000 N   0  0  0  0  0  0  0  0  0  0  0  0
   -0.1435   -1.3654    0.0000 N   0  0  0  0  0  0  0  0  0  0  0  0
    0.6411   -1.1104    0.0000 C   0  0  0  0  0  0  0  0  0  0  0  0
    0.6411   -0.2854    0.0000 N   0  0  0  0  0  0  0  0  0  0  0  0
   -0.1435   -0.0305    0.0000 C   0  0  0  0  0  0  0  0  0  0  0  0
   -0.3984    0.7541    0.0000 O   0  0  0  0  0  0  0  0  0  0  0  0
    1.3556    0.1271    0.0000 C   0  0  0  0  0  0  0  0  0  0  0  0
    2.0701   -0.2854    0.0000 C   0  0  0  0  0  0  0  0  0  0  0  0
    2.0701   -1.1104    0.0000 C   0  0  0  0  0  0  0  0  0  0  0  0
    1.3556   -1.5229    0.0000 C   0  0  0  0  0  0  0  0  0  0  0  0
   -1.8659   -1.4124    0.0000 C   0  0  0  0  0  0  0  0  0  0  0  0
   -2.6909   -1.4124    0.0000 C   0  0  0  0  0  0  0  0  0  0  0  0
   -3.1034   -2.1269    0.0000 O   0  0  0  0  0  0  0  0  0  0  0  0
   -2.6909   -2.8414    0.0000 C   0  0  0  0  0  0  0  0  0  0  0  0
   -1.8659   -2.8414    0.0000 C   0  0  0  0  0  0  0  0  0  0  0  0
   -3.1034   -3.5558    0.0000 C   0  0  0  0  0  0  0  0  0  0  0  0
   -2.6909   -4.2703    0.0000 C   0  0  0  0  0  0  0  0  0  0  0  0
   -3.1034   -4.9848    0.0000 C   0  0  0  0  0  0  0  0  0  0  0  0
   -3.9284   -4.9848    0.0000 C   0  0  0  0  0  0  0  0  0  0  0  0
   -4.3409   -4.2703    0.0000 C   0  0  0  0  0  0  0  0  0  0  0  0
   -3.9284   -3.5558    0.0000 C   0  0  0  0  0  0  0  0  0  0  0  0
  1  2  1  0  0  0  0
  2  3  4  0  0  0  0
  3  4  4  0  0  0  0
  4  5  4  0  0  0  0
  5  6  4  0  0  0  0
  6  7  1  0  0  0  0
  6  8  4  0  0  0  0
  2  8  4  0  0  0  0
  8  9  1  0  0  0  0
  9 10  1  0  0  0  0
 10 11  2  0  0  0  0
 10 12  1  0  0  0  0
 12 13  4  0  0  0  0
 13 14  4  0  0  0  0
 14 15  1  0  0  0  0
 14 16  4  0  0  0  0
 16 17  1  0  0  0  0
 17 18  4  0  0  0  0
 18 19  4  0  0  0  0
 19 20  4  0  0  0  0
 20 21  4  0  0  0  0
 17 21  4  0  0  0  0
 21 22  2  0  0  0  0
 20 23  1  0  0  0  0
 23 24  1  0  0  0  0
 24 25  1  0  0  0  0
 25 26  1  0  0  0  0
 19 26  1  0  0  0  0
 16 27  4  0  0  0  0
 27 28  4  0  0  0  0
 12 28  4  0  0  0  0
 28 29  1  0  0  0  0
 29 30  1  0  0  0  0
 30 31  1  0  0  0  0
 30 32  1  0  0  0  0
 32 33  1  0  0  0  0
 33 34  1  0  0  0  0
 34 35  1  0  0  0  0
 35 36  1  0  0  0  0
 36 37  1  0  0  0  0
 32 37  1  0  0  0  0
M  END
> <IC50(uM)>
0.049

> <Outcome>
1.0

> <BindingDB ID>
1020522

> <BindingDB MonomerID>
490470

> <BindingDB Ligand Name>
2-[(1S)-1-cyclohexylethoxy]-N-(4,6-dimethylpyrimidin-5-yl)-5-fluoro-4-(3-oxo-5,6,7,8-tetrahydro[1,2,4]triazolo[4,3-a]pyridin-2(3H)-yl)benzamide::US10968216, Example 138

> <Curation/DataSource>
US Patent

> <Article DOI>
?

> <PMID>
?

> <Patent Number>
US10968216

> <Authors>
Gradl, SN; Nguyen, D; Eis, K; Gunther, J; Stellfeld, T; Janzer, A; Christian, S; Mueller, T; Sheikh, SE; Zhou, HJ; Zhao, C; Sykes, DB; Ferrara, SJ; Liu, K; Herbert, SA; Merz, C; Niehues, M; Nising, CF; Schafer, M; Zimmermann, K; Knablein, J; Thede, K; Faupel, T

> <Link to Ligand in BindingDB>
http://www.bindingdb.org/bind/chemsearch/marvin/MolStructure.jsp?monomerid=490470

> <Link to Ligand-Target Pair in BindingDB>
http://www.bindingdb.org/jsp/dbsearch/PrimarySearch_ki.jsp?energyterm=kJ/mole&tag=r21&monomerid=490470&enzyme=Dihydroorotate+dehydrogenase&column=ki&startPg=0&Increment=50&submit=Search

> <PubChem CID>
146871774

> <PubChem SID>
447117197

$$$$

  Mrv2115 07222212352D          

 22 24  0  0  0  0            999 V2000
    3.5724   -2.8875    0.0000 C   0  0  0  0  0  0  0  0  0  0  0  0
    4.2868   -3.3000    0.0000 C   0  0  0  0  0  0  0  0  0  0  0  0
    5.0013   -2.8875    0.0000 C   0  0  0  0  0  0  0  0  0  0  0  0
    5.7158   -3.3000    0.0000 C   0  0  0  0  0  0  0  0  0  0  0  0
    6.4302   -2.8875    0.0000 C   0  0  0  0  0  0  0  0  0  0  0  0
    7.1447   -3.3000    0.0000 C   0  0  0  0  0  0  0  0  0  0  0  0
    7.8592   -2.8875    0.0000 C   0  0  0  0  0  0  0  0  0  0  0  0
    8.5737   -3.3000    0.0000 C   0  0  0  0  0  0  0  0  0  0  0  0
    8.5737   -4.1250    0.0000 C   0  0  0  0  0  0  0  0  0  0  0  0
    9.2881   -4.5375    0.0000 N   0  0  0  0  0  0  0  0  0  0  0  0
    9.2881   -5.3625    0.0000 C   0  0  0  0  0  0  0  0  0  0  0  0
   10.0026   -5.7750    0.0000 C   0  0  0  0  0  0  0  0  0  0  0  0
   10.0026   -6.6000    0.0000 C   0  0  0  0  0  0  0  0  0  0  0  0
   10.7171   -7.0125    0.0000 C   0  0  0  0  0  0  0  0  0  0  0  0
    9.2881   -7.0125    0.0000 N   0  0  0  0  0  0  0  0  0  0  0  0
    8.5737   -6.6000    0.0000 C   0  0  0  0  0  0  0  0  0  0  0  0
    7.7890   -6.8549    0.0000 N   0  0  0  0  0  0  0  0  0  0  0  0
    7.3041   -6.1875    0.0000 C   0  0  0  0  0  0  0  0  0  0  0  0
    7.7890   -5.5201    0.0000 N   0  0  0  0  0  0  0  0  0  0  0  0
    8.5737   -5.7750    0.0000 N   0  0  0  0  0  0  0  0  0  0  0  0
    7.8592   -4.5375    0.0000 C   0  0  0  0  0  0  0  0  0  0  0  0
    7.1447   -4.1250    0.0000 C   0  0  0  0  0  0  0  0  0  0  0  0
  1  2  1  0  0  0  0
  2  3  1  0  0  0  0
  3  4  1  0  0  0  0
  4  5  1  0  0  0  0
  5  6  1  0  0  0  0
  6  7  4  0  0  0  0
  7  8  4  0  0  0  0
  8  9  4  0  0  0  0
  9 10  1  0  0  0  0
 10 11  1  0  0  0  0
 11 12  4  0  0  0  0
 12 13  4  0  0  0  0
 13 14  1  0  0  0  0
 13 15  4  0  0  0  0
 15 16  4  0  0  0  0
 16 17  4  0  0  0  0
 17 18  4  0  0  0  0
 18 19  4  0  0  0  0
 19 20  4  0  0  0  0
 11 20  4  0  0  0  0
 16 20  4  0  0  0  0
  9 21  4  0  0  0  0
 21 22  4  0  0  0  0
  6 22  4  0  0  0  0
M  END
> <IC50(uM)>
100.0

> <Outcome>
0.0

> <BindingDB ID>
50643141

> <BindingDB MonomerID>
50345399

> <BindingDB Ligand Name>
CHEMBL1784557::N-(4-Pentylphenyl)-5-methyl-[1,2,4]triazolo[1,5-a]pyrimidin-7-amine

> <Curation/DataSource>
ChEMBL

> <Article DOI>
10.1021/jm200265b

> <PMID>
21517059

> <Patent Number>
?

> <Authors>
Gujjar, R; El Mazouni, F; White, KL; White, J; Creason, S; Shackleford, DM; Deng, X; Charman, WN; Bathurst, I; Burrows, J; Floyd, DM; Matthews, D; Buckner, FS; Charman, SA; Phillips, MA; Rathod, PK

> <Link to Ligand in BindingDB>
http://www.bindingdb.org/bind/chemsearch/marvin/MolStructure.jsp?monomerid=50345399

> <Link to Ligand-Target Pair in BindingDB>
http://www.bindingdb.org/jsp/dbsearch/PrimarySearch_ki.jsp?energyterm=kJ/mole&tag=r21&monomerid=50345399&enzyme=Dihydroorotate+dehydrogenase&column=ki&startPg=0&Increment=50&submit=Search

> <PubChem CID>
44131575

> <PubChem SID>
131348335

$$$$

  Mrv2115 07222212352D          

 27 29  0  0  0  0            999 V2000
    1.3222    2.4134    0.0000 C   0  0  0  0  0  0  0  0  0  0  0  0
    2.0367    2.0009    0.0000 C   0  0  0  0  0  0  0  0  0  0  0  0
    2.0367    1.1759    0.0000 C   0  0  0  0  0  0  0  0  0  0  0  0
    2.7512    0.7634    0.0000 C   0  0  0  0  0  0  0  0  0  0  0  0
    2.7512   -0.0616    0.0000 N   0  0  0  0  0  0  0  0  0  0  0  0
    2.0367   -0.4741    0.0000 C   0  0  0  0  0  0  0  0  0  0  0  0
    2.0367   -1.2991    0.0000 N   0  0  0  0  0  0  0  0  0  0  0  0
    2.7041   -1.7840    0.0000 N   0  0  0  0  0  0  0  0  0  0  0  0
    2.4492   -2.5687    0.0000 C   0  0  0  0  0  0  0  0  0  0  0  0
    2.9341   -3.2361    0.0000 O   0  0  0  0  0  0  0  0  0  0  0  0
    3.7546   -3.1499    0.0000 C   0  0  0  0  0  0  0  0  0  0  0  0
    4.0902   -2.3962    0.0000 C   0  0  0  0  0  0  0  0  0  0  0  0
    4.2395   -3.8173    0.0000 C   0  0  0  0  0  0  0  0  0  0  0  0
    1.6242   -2.5687    0.0000 C   0  0  0  0  0  0  0  0  0  0  0  0
    1.1393   -3.2361    0.0000 O   0  0  0  0  0  0  0  0  0  0  0  0
    0.3188   -3.1499    0.0000 C   0  0  0  0  0  0  0  0  0  0  0  0
   -0.1661   -3.8173    0.0000 C   0  0  0  0  0  0  0  0  0  0  0  0
    0.1694   -4.5710    0.0000 F   0  0  0  0  0  0  0  0  0  0  0  0
   -0.9866   -3.7311    0.0000 C   0  0  0  0  0  0  0  0  0  0  0  0
   -1.3222   -2.9774    0.0000 C   0  0  0  0  0  0  0  0  0  0  0  0
   -0.8372   -2.3099    0.0000 C   0  0  0  0  0  0  0  0  0  0  0  0
   -0.0168   -2.3962    0.0000 C   0  0  0  0  0  0  0  0  0  0  0  0
    0.4682   -1.7287    0.0000 F   0  0  0  0  0  0  0  0  0  0  0  0
    1.3693   -1.7840    0.0000 C   0  0  0  0  0  0  0  0  0  0  0  0
    0.7018   -1.2991    0.0000 C   0  0  0  0  0  0  0  0  0  0  0  0
    1.3222   -0.0616    0.0000 N   0  0  0  0  0  0  0  0  0  0  0  0
    1.3222    0.7634    0.0000 C   0  0  0  0  0  0  0  0  0  0  0  0
  1  2  1  0  0  0  0
  2  3  1  0  0  0  0
  3  4  4  0  0  0  0
  4  5  4  0  0  0  0
  5  6  4  0  0  0  0
  6  7  1  0  0  0  0
  7  8  4  0  0  0  0
  8  9  4  0  0  0  0
  9 10  1  0  0  0  0
 10 11  1  0  0  0  0
 11 12  1  0  0  0  0
 11 13  1  0  0  0  0
  9 14  4  0  0  0  0
 14 15  1  0  0  0  0
 15 16  1  0  0  0  0
 16 17  4  0  0  0  0
 17 18  1  0  0  0  0
 17 19  4  0  0  0  0
 19 20  4  0  0  0  0
 20 21  4  0  0  0  0
 21 22  4  0  0  0  0
 16 22  4  0  0  0  0
 22 23  1  0  0  0  0
 14 24  4  0  0  0  0
  7 24  4  0  0  0  0
 24 25  1  0  0  0  0
  6 26  4  0  0  0  0
 26 27  4  0  0  0  0
  3 27  4  0  0  0  0
M  END
> <IC50(uM)>
7.94328E-4

> <Outcome>
1.0

> <BindingDB ID>
50311221

> <BindingDB MonomerID>
50070908

> <BindingDB Ligand Name>
CHEMBL3409491

> <Curation/DataSource>
ChEMBL

> <Article DOI>
10.1021/jm501446r

> <PMID>
25558988

> <Patent Number>
?

> <Authors>
Munier-Lehmann, H; Lucas-Hourani, M; Guillou, S; Helynck, O; Zanghi, G; Noel, A; Tangy, F; Vidalain, PO; Janin, YL

> <Link to Ligand in BindingDB>
http://www.bindingdb.org/bind/chemsearch/marvin/MolStructure.jsp?monomerid=50070908

> <Link to Ligand-Target Pair in BindingDB>
http://www.bindingdb.org/jsp/dbsearch/PrimarySearch_ki.jsp?energyterm=kJ/mole&tag=r21&monomerid=50070908&enzyme=Dihydroorotate+dehydrogenase&column=ki&startPg=0&Increment=50&submit=Search

> <PubChem CID>
118430570

> <PubChem SID>
103964735

$$$$

  Mrv2115 07222212352D          

 29 32  0  0  0  0            999 V2000
    7.6391    6.8854    0.0000 C   0  0  0  0  0  0  0  0  0  0  0  0
    7.6391    6.0604    0.0000 C   0  0  0  0  0  0  0  0  0  0  0  0
    8.3536    5.6479    0.0000 O   0  0  0  0  0  0  0  0  0  0  0  0
    6.9246    5.6479    0.0000 N   0  0  0  0  0  0  0  0  0  0  0  0
    6.9246    4.8229    0.0000 C   0  0  0  0  0  0  0  0  0  0  0  0
    7.6391    4.4104    0.0000 C   0  0  0  0  0  0  0  0  0  0  0  0
    7.6391    3.5854    0.0000 C   0  0  0  0  0  0  0  0  0  0  0  0
    6.9246    3.1729    0.0000 C   0  0  0  0  0  0  0  0  0  0  0  0
    6.2102    3.5854    0.0000 C   0  0  0  0  0  0  0  0  0  0  0  0
    5.4957    3.1729    0.0000 C   0  0  0  0  0  0  0  0  0  0  0  0
    5.4957    2.3479    0.0000 C   0  0  0  0  0  0  0  0  0  0  0  0
    4.7812    1.9354    0.0000 C   0  0  0  0  0  0  0  0  0  0  0  0
    4.0668    2.3479    0.0000 C   0  0  0  0  0  0  0  0  0  0  0  0
    3.3523    1.9354    0.0000 C   0  0  0  0  0  0  0  0  0  0  0  0
    3.3523    1.1104    0.0000 C   0  0  0  0  0  0  0  0  0  0  0  0
    2.6378    0.6979    0.0000 C   0  0  0  0  0  0  0  0  0  0  0  0
    2.6378   -0.1271    0.0000 C   0  0  0  0  0  0  0  0  0  0  0  0
    1.9233   -0.5396    0.0000 O   0  0  0  0  0  0  0  0  0  0  0  0
    3.3523   -0.5396    0.0000 O   0  0  0  0  0  0  0  0  0  0  0  0
    1.9233    1.1104    0.0000 C   0  0  0  0  0  0  0  0  0  0  0  0
    1.9233    1.9354    0.0000 C   0  0  0  0  0  0  0  0  0  0  0  0
    2.6378    2.3479    0.0000 C   0  0  0  0  0  0  0  0  0  0  0  0
    1.1387    2.1904    0.0000 N   0  0  0  0  0  0  0  0  0  0  0  0
    0.6538    1.5229    0.0000 N   0  0  0  0  0  0  0  0  0  0  0  0
    1.1387    0.8555    0.0000 N   0  0  0  0  0  0  0  0  0  0  0  0
    0.8838    0.0709    0.0000 C   0  0  0  0  0  0  0  0  0  0  0  0
    4.0668    3.1729    0.0000 C   0  0  0  0  0  0  0  0  0  0  0  0
    4.7812    3.5854    0.0000 C   0  0  0  0  0  0  0  0  0  0  0  0
    6.2102    4.4104    0.0000 C   0  0  0  0  0  0  0  0  0  0  0  0
  1  2  1  0  0  0  0
  2  3  2  0  0  0  0
  2  4  1  0  0  0  0
  4  5  1  0  0  0  0
  5  6  4  0  0  0  0
  6  7  4  0  0  0  0
  7  8  4  0  0  0  0
  8  9  4  0  0  0  0
  9 10  1  0  0  0  0
 10 11  4  0  0  0  0
 11 12  4  0  0  0  0
 12 13  4  0  0  0  0
 13 14  1  0  0  0  0
 14 15  4  0  0  0  0
 15 16  4  0  0  0  0
 16 17  1  0  0  0  0
 17 18  2  0  0  0  0
 17 19  1  0  0  0  0
 16 20  4  0  0  0  0
 20 21  4  0  0  0  0
 21 22  4  0  0  0  0
 14 22  4  0  0  0  0
 21 23  4  0  0  0  0
 23 24  4  0  0  0  0
 24 25  4  0  0  0  0
 20 25  4  0  0  0  0
 25 26  1  0  0  0  0
 13 27  4  0  0  0  0
 27 28  4  0  0  0  0
 10 28  4  0  0  0  0
  9 29  4  0  0  0  0
  5 29  4  0  0  0  0
M  END
> <IC50(uM)>
1.0

> <Outcome>
1.0

> <BindingDB ID>
1100184

> <BindingDB MonomerID>
520643

> <BindingDB Ligand Name>
5-(3'-acetamido-[1,1'-biphenyl]-4-yl)-1-methyl-1H-benzo[d][1,2,3]triazole-7- carboxylic acid;::US11147801, Compound 32

> <Curation/DataSource>
US Patent

> <Article DOI>
?

> <PMID>
?

> <Patent Number>
US11147801

> <Authors>
Nellore, K; Hosahalli, S

> <Link to Ligand in BindingDB>
http://www.bindingdb.org/bind/chemsearch/marvin/MolStructure.jsp?monomerid=520643

> <Link to Ligand-Target Pair in BindingDB>
http://www.bindingdb.org/jsp/dbsearch/PrimarySearch_ki.jsp?energyterm=kJ/mole&tag=r21&monomerid=520643&enzyme=Dihydroorotate+dehydrogenase&column=ki&startPg=0&Increment=50&submit=Search

> <PubChem CID>
?

> <PubChem SID>
?

$$$$

  Mrv2115 07222212352D          

 26 27  0  0  0  0            999 V2000
    1.4289   -6.6000    0.0000 C   0  0  0  0  0  0  0  0  0  0  0  0
    2.1434   -6.1875    0.0000 C   0  0  0  0  0  0  0  0  0  0  0  0
    2.8579   -6.6000    0.0000 C   0  0  0  0  0  0  0  0  0  0  0  0
    2.8579   -7.4250    0.0000 O   0  0  0  0  0  0  0  0  0  0  0  0
    3.5724   -6.1875    0.0000 C   0  0  0  0  0  0  0  0  0  0  0  0
    3.5724   -5.3625    0.0000 C   0  0  0  0  0  0  0  0  0  0  0  0
    3.5724   -4.5375    0.0000 N   0  0  0  0  0  0  0  0  0  0  0  0
    4.2868   -6.6000    0.0000 C   0  0  0  0  0  0  0  0  0  0  0  0
    4.2868   -7.4250    0.0000 O   0  0  0  0  0  0  0  0  0  0  0  0
    5.0013   -6.1875    0.0000 N   0  0  0  0  0  0  0  0  0  0  0  0
    5.7158   -6.6000    0.0000 C   0  0  0  0  0  0  0  0  0  0  0  0
    6.4302   -6.1875    0.0000 C   0  0  0  0  0  0  0  0  0  0  0  0
    7.1447   -6.6000    0.0000 C   0  0  0  0  0  0  0  0  0  0  0  0
    7.1447   -7.4250    0.0000 C   0  0  0  0  0  0  0  0  0  0  0  0
    7.8592   -7.8375    0.0000 C   0  0  0  0  0  0  0  0  0  0  0  0
    8.5737   -7.4250    0.0000 C   0  0  0  0  0  0  0  0  0  0  0  0
    9.2881   -7.8375    0.0000 C   0  0  0  0  0  0  0  0  0  0  0  0
    9.2881   -8.6625    0.0000 C   0  0  0  0  0  0  0  0  0  0  0  0
    8.5737   -9.0750    0.0000 C   0  0  0  0  0  0  0  0  0  0  0  0
    7.8592   -8.6625    0.0000 C   0  0  0  0  0  0  0  0  0  0  0  0
    6.4302   -7.8375    0.0000 C   0  0  0  0  0  0  0  0  0  0  0  0
    6.4302   -8.6625    0.0000 C   0  0  0  0  0  0  0  0  0  0  0  0
    5.7158   -9.0750    0.0000 O   0  0  0  0  0  0  0  0  0  0  0  0
    7.1447   -9.0750    0.0000 O   0  0  0  0  0  0  0  0  0  0  0  0
    7.1447   -9.9000    0.0000 C   0  0  0  0  0  0  0  0  0  0  0  0
    5.7158   -7.4250    0.0000 C   0  0  0  0  0  0  0  0  0  0  0  0
  1  2  1  0  0  0  0
  2  3  1  0  0  0  0
  3  4  2  0  0  0  0
  3  5  1  0  0  0  0
  5  6  1  0  0  0  0
  6  7  3  0  0  0  0
  5  8  1  0  0  0  0
  8  9  2  0  0  0  0
  8 10  1  0  0  0  0
 10 11  1  0  0  0  0
 11 12  4  0  0  0  0
 12 13  4  0  0  0  0
 13 14  4  0  0  0  0
 14 15  1  0  0  0  0
 15 16  4  0  0  0  0
 16 17  4  0  0  0  0
 17 18  4  0  0  0  0
 18 19  4  0  0  0  0
 19 20  4  0  0  0  0
 15 20  4  0  0  0  0
 14 21  4  0  0  0  0
 21 22  1  0  0  0  0
 22 23  2  0  0  0  0
 22 24  1  0  0  0  0
 24 25  1  0  0  0  0
 21 26  4  0  0  0  0
 11 26  4  0  0  0  0
M  END
> <IC50(uM)>
0.073

> <Outcome>
1.0

> <BindingDB ID>
50707369

> <BindingDB MonomerID>
50359690

> <BindingDB Ligand Name>
CHEMBL1929434

> <Curation/DataSource>
ChEMBL

> <Article DOI>
10.1016/j.bmcl.2011.10.052

> <PMID>
22078215

> <Patent Number>
?

> <Authors>
Erra, M; Moreno, I; Sanahuja, J; Andres, M; Reinoso, RF; Lozoya, E; Pizcueta, P; Godessart, N; Castro-Palomino, JC

> <Link to Ligand in BindingDB>
http://www.bindingdb.org/bind/chemsearch/marvin/MolStructure.jsp?monomerid=50359690

> <Link to Ligand-Target Pair in BindingDB>
http://www.bindingdb.org/jsp/dbsearch/PrimarySearch_ki.jsp?energyterm=kJ/mole&tag=r21&monomerid=50359690&enzyme=Dihydroorotate+dehydrogenase&column=ki&startPg=0&Increment=50&submit=Search

> <PubChem CID>
91930438

> <PubChem SID>
136963714

$$$$

  Mrv2115 07222212352D          

 25 27  0  0  0  0            999 V2000
    0.7145   -3.7125    0.0000 O   0  0  0  0  0  0  0  0  0  0  0  0
    1.4289   -4.1250    0.0000 C   0  0  0  0  0  0  0  0  0  0  0  0
    2.1434   -3.7125    0.0000 O   0  0  0  0  0  0  0  0  0  0  0  0
    1.4289   -4.9500    0.0000 C   0  0  0  0  0  0  0  0  0  0  0  0
    2.0964   -5.4349    0.0000 C   0  0  0  0  0  0  0  0  0  0  0  0
    2.8810   -5.1800    0.0000 C   0  0  0  0  0  0  0  0  0  0  0  0
    3.4941   -5.7320    0.0000 O   0  0  0  0  0  0  0  0  0  0  0  0
    3.0525   -4.3730    0.0000 N   0  0  0  0  0  0  0  0  0  0  0  0
    3.8372   -4.1181    0.0000 C   0  0  0  0  0  0  0  0  0  0  0  0
    4.0087   -3.3111    0.0000 C   0  0  0  0  0  0  0  0  0  0  0  0
    4.7933   -3.0562    0.0000 C   0  0  0  0  0  0  0  0  0  0  0  0
    5.4064   -3.6082    0.0000 C   0  0  0  0  0  0  0  0  0  0  0  0
    6.1910   -3.3533    0.0000 C   0  0  0  0  0  0  0  0  0  0  0  0
    6.3625   -2.5463    0.0000 C   0  0  0  0  0  0  0  0  0  0  0  0
    7.1472   -2.2913    0.0000 C   0  0  0  0  0  0  0  0  0  0  0  0
    7.7603   -2.8434    0.0000 C   0  0  0  0  0  0  0  0  0  0  0  0
    8.5449   -2.5884    0.0000 Br  0  0  0  0  0  0  0  0  0  0  0  0
    7.5887   -3.6503    0.0000 C   0  0  0  0  0  0  0  0  0  0  0  0
    6.8041   -3.9053    0.0000 C   0  0  0  0  0  0  0  0  0  0  0  0
    5.2349   -4.4152    0.0000 C   0  0  0  0  0  0  0  0  0  0  0  0
    5.8480   -4.9672    0.0000 Cl  0  0  0  0  0  0  0  0  0  0  0  0
    4.4502   -4.6701    0.0000 C   0  0  0  0  0  0  0  0  0  0  0  0
    1.8414   -6.2195    0.0000 C   0  0  0  0  0  0  0  0  0  0  0  0
    1.0164   -6.2195    0.0000 C   0  0  0  0  0  0  0  0  0  0  0  0
    0.7615   -5.4349    0.0000 C   0  0  0  0  0  0  0  0  0  0  0  0
  1  2  2  0  0  0  0
  2  3  1  0  0  0  0
  2  4  1  0  0  0  0
  4  5  2  0  0  0  0
  5  6  1  0  0  0  0
  6  7  2  0  0  0  0
  6  8  1  0  0  0  0
  8  9  1  0  0  0  0
  9 10  4  0  0  0  0
 10 11  4  0  0  0  0
 11 12  4  0  0  0  0
 12 13  1  0  0  0  0
 13 14  4  0  0  0  0
 14 15  4  0  0  0  0
 15 16  4  0  0  0  0
 16 17  1  0  0  0  0
 16 18  4  0  0  0  0
 18 19  4  0  0  0  0
 13 19  4  0  0  0  0
 12 20  4  0  0  0  0
 20 21  1  0  0  0  0
 20 22  4  0  0  0  0
  9 22  4  0  0  0  0
  5 23  1  0  0  0  0
 23 24  1  0  0  0  0
 24 25  1  0  0  0  0
  4 25  1  0  0  0  0
M  END
> <IC50(uM)>
0.07

> <Outcome>
1.0

> <BindingDB ID>
50251718

> <BindingDB MonomerID>
50137302

> <BindingDB Ligand Name>
2-(4'-Bromo-2-chloro-biphenyl-4-ylcarbamoyl)-cyclopent-1-enecarboxylic acid::CHEMBL348871

> <Curation/DataSource>
ChEMBL

> <Article DOI>
10.1016/j.bmcl.2003.10.021

> <PMID>
14684297

> <Patent Number>
?

> <Authors>
Leban, J; Saeb, W; Garcia, G; Baumgartner, R; Kramer, B

> <Link to Ligand in BindingDB>
http://www.bindingdb.org/bind/chemsearch/marvin/MolStructure.jsp?monomerid=50137302

> <Link to Ligand-Target Pair in BindingDB>
http://www.bindingdb.org/jsp/dbsearch/PrimarySearch_ki.jsp?energyterm=kJ/mole&tag=r21&monomerid=50137302&enzyme=Dihydroorotate+dehydrogenase&column=ki&startPg=0&Increment=50&submit=Search

> <PubChem CID>
44369512

> <PubChem SID>
104027468

$$$$

  Mrv2115 07222212352D          

 29 32  0  0  0  0            999 V2000
   -2.8762   -2.1500    0.0000 C   0  0  0  0  0  0  0  0  0  0  0  0
   -3.1311   -1.3654    0.0000 C   0  0  0  0  0  0  0  0  0  0  0  0
   -3.9157   -1.1104    0.0000 C   0  0  0  0  0  0  0  0  0  0  0  0
   -3.9157   -0.2854    0.0000 C   0  0  0  0  0  0  0  0  0  0  0  0
   -3.1311   -0.0305    0.0000 C   0  0  0  0  0  0  0  0  0  0  0  0
   -2.8762    0.7541    0.0000 C   0  0  0  0  0  0  0  0  0  0  0  0
   -2.6462   -0.6979    0.0000 N   0  0  0  0  0  0  0  0  0  0  0  0
   -1.8212   -0.6979    0.0000 C   0  0  0  0  0  0  0  0  0  0  0  0
   -1.4087    0.0165    0.0000 C   0  0  0  0  0  0  0  0  0  0  0  0
   -1.8212    0.7310    0.0000 F   0  0  0  0  0  0  0  0  0  0  0  0
   -0.5837    0.0165    0.0000 C   0  0  0  0  0  0  0  0  0  0  0  0
   -0.1712    0.7310    0.0000 F   0  0  0  0  0  0  0  0  0  0  0  0
   -0.1712   -0.6979    0.0000 C   0  0  0  0  0  0  0  0  0  0  0  0
    0.6538   -0.6979    0.0000 C   0  0  0  0  0  0  0  0  0  0  0  0
    1.1387   -0.0305    0.0000 N   0  0  0  0  0  0  0  0  0  0  0  0
    1.9233   -0.2854    0.0000 C   0  0  0  0  0  0  0  0  0  0  0  0
    2.6378    0.1271    0.0000 C   0  0  0  0  0  0  0  0  0  0  0  0
    3.3523   -0.2854    0.0000 C   0  0  0  0  0  0  0  0  0  0  0  0
    3.3523   -1.1104    0.0000 C   0  0  0  0  0  0  0  0  0  0  0  0
    2.6378   -1.5229    0.0000 C   0  0  0  0  0  0  0  0  0  0  0  0
    2.6378   -2.3479    0.0000 C   0  0  0  0  0  0  0  0  0  0  0  0
    3.3523   -2.7604    0.0000 O   0  0  0  0  0  0  0  0  0  0  0  0
    1.9233   -2.7604    0.0000 O   0  0  0  0  0  0  0  0  0  0  0  0
    1.9233   -1.1104    0.0000 C   0  0  0  0  0  0  0  0  0  0  0  0
    1.1387   -1.3654    0.0000 N   0  0  0  0  0  0  0  0  0  0  0  0
   -0.5837   -1.4124    0.0000 C   0  0  0  0  0  0  0  0  0  0  0  0
   -0.1712   -2.1269    0.0000 F   0  0  0  0  0  0  0  0  0  0  0  0
   -1.4087   -1.4124    0.0000 C   0  0  0  0  0  0  0  0  0  0  0  0
   -1.8212   -2.1269    0.0000 F   0  0  0  0  0  0  0  0  0  0  0  0
  1  2  1  0  0  0  0
  2  3  4  0  0  0  0
  3  4  4  0  0  0  0
  4  5  4  0  0  0  0
  5  6  1  0  0  0  0
  5  7  4  0  0  0  0
  2  7  4  0  0  0  0
  7  8  1  0  0  0  0
  8  9  4  0  0  0  0
  9 10  1  0  0  0  0
  9 11  4  0  0  0  0
 11 12  1  0  0  0  0
 11 13  4  0  0  0  0
 13 14  1  0  0  0  0
 14 15  4  0  0  0  0
 15 16  4  0  0  0  0
 16 17  4  0  0  0  0
 17 18  4  0  0  0  0
 18 19  4  0  0  0  0
 19 20  4  0  0  0  0
 20 21  1  0  0  0  0
 21 22  2  0  0  0  0
 21 23  1  0  0  0  0
 20 24  4  0  0  0  0
 16 24  4  0  0  0  0
 24 25  4  0  0  0  0
 14 25  4  0  0  0  0
 13 26  4  0  0  0  0
 26 27  1  0  0  0  0
 26 28  4  0  0  0  0
  8 28  4  0  0  0  0
 28 29  1  0  0  0  0
M  STY  1   1 DAT
M  SAL   1  1  25
M  SDT   1 MRV_IMPLICIT_H                                        
M  SDD   1     0.5304   -0.4125    DR    ALL  0       0  
M  SED   1 IMPL_H1
M  END
> <IC50(uM)>
0.11

> <Outcome>
1.0

> <BindingDB ID>
297812

> <BindingDB MonomerID>
155468

> <BindingDB Ligand Name>
US9006454, I110

> <Curation/DataSource>
US Patent

> <Article DOI>
?

> <PMID>
?

> <Patent Number>
US9006454

> <Authors>
Thunuguntla, SS; Subramanya, H; Kunnam, SR; Sanivaru Vijay, SR; Bingi, C; Kusanur, R; Schwarz, M; Arlt, M

> <Link to Ligand in BindingDB>
http://www.bindingdb.org/bind/chemsearch/marvin/MolStructure.jsp?monomerid=155468

> <Link to Ligand-Target Pair in BindingDB>
http://www.bindingdb.org/jsp/dbsearch/PrimarySearch_ki.jsp?energyterm=kJ/mole&tag=r21&monomerid=155468&enzyme=Dihydroorotate+dehydrogenase&column=ki&startPg=0&Increment=50&submit=Search

> <PubChem CID>
88582984

> <PubChem SID>
253658405

$$$$

  Mrv2115 07222212352D          

 30 32  0  0  0  0            999 V2000
    2.1434   -3.7125    0.0000 O   0  0  0  0  0  0  0  0  0  0  0  0
    1.4289   -4.1250    0.0000 C   0  0  0  0  0  0  0  0  0  0  0  0
    0.7145   -3.7125    0.0000 O   0  0  0  0  0  0  0  0  0  0  0  0
    1.4289   -4.9500    0.0000 C   0  0  0  0  0  0  0  0  0  0  0  0
    2.0964   -5.4349    0.0000 C   0  0  0  0  0  0  0  0  0  0  0  0
    1.8414   -6.2195    0.0000 S   0  0  0  0  0  0  0  0  0  0  0  0
    1.0164   -6.2195    0.0000 C   0  0  0  0  0  0  0  0  0  0  0  0
    0.7615   -5.4349    0.0000 C   0  0  0  0  0  0  0  0  0  0  0  0
   -0.0231   -5.1800    0.0000 C   0  0  0  0  0  0  0  0  0  0  0  0
   -0.1946   -4.3730    0.0000 O   0  0  0  0  0  0  0  0  0  0  0  0
   -0.6362   -5.7320    0.0000 N   0  0  0  0  0  0  0  0  0  0  0  0
   -1.4208   -5.4771    0.0000 C   0  0  0  0  0  0  0  0  0  0  0  0
   -2.0339   -6.0291    0.0000 C   0  0  0  0  0  0  0  0  0  0  0  0
   -1.8624   -6.8361    0.0000 F   0  0  0  0  0  0  0  0  0  0  0  0
   -2.8186   -5.7742    0.0000 C   0  0  0  0  0  0  0  0  0  0  0  0
   -2.9901   -4.9672    0.0000 C   0  0  0  0  0  0  0  0  0  0  0  0
   -3.7747   -4.7123    0.0000 C   0  0  0  0  0  0  0  0  0  0  0  0
   -4.3878   -5.2643    0.0000 C   0  0  0  0  0  0  0  0  0  0  0  0
   -5.1724   -5.0094    0.0000 C   0  0  0  0  0  0  0  0  0  0  0  0
   -5.3439   -4.2024    0.0000 C   0  0  0  0  0  0  0  0  0  0  0  0
   -4.7308   -3.6503    0.0000 C   0  0  0  0  0  0  0  0  0  0  0  0
   -4.9024   -2.8434    0.0000 O   0  0  0  0  0  0  0  0  0  0  0  0
   -5.6870   -2.5884    0.0000 C   0  0  0  0  0  0  0  0  0  0  0  0
   -6.4716   -2.3335    0.0000 F   0  0  0  0  0  0  0  0  0  0  0  0
   -5.4321   -1.8038    0.0000 F   0  0  0  0  0  0  0  0  0  0  0  0
   -5.9419   -3.3731    0.0000 F   0  0  0  0  0  0  0  0  0  0  0  0
   -3.9462   -3.9053    0.0000 C   0  0  0  0  0  0  0  0  0  0  0  0
   -2.3770   -4.4152    0.0000 C   0  0  0  0  0  0  0  0  0  0  0  0
   -1.5924   -4.6701    0.0000 C   0  0  0  0  0  0  0  0  0  0  0  0
   -0.9793   -4.1181    0.0000 F   0  0  0  0  0  0  0  0  0  0  0  0
  1  2  2  0  0  0  0
  2  3  1  0  0  0  0
  2  4  1  0  0  0  0
  4  5  4  0  0  0  0
  5  6  4  0  0  0  0
  6  7  4  0  0  0  0
  7  8  4  0  0  0  0
  4  8  4  0  0  0  0
  8  9  1  0  0  0  0
  9 10  2  0  0  0  0
  9 11  1  0  0  0  0
 11 12  1  0  0  0  0
 12 13  4  0  0  0  0
 13 14  1  0  0  0  0
 13 15  4  0  0  0  0
 15 16  4  0  0  0  0
 16 17  1  0  0  0  0
 17 18  4  0  0  0  0
 18 19  4  0  0  0  0
 19 20  4  0  0  0  0
 20 21  4  0  0  0  0
 21 22  1  0  0  0  0
 22 23  1  0  0  0  0
 23 24  1  0  0  0  0
 23 25  1  0  0  0  0
 23 26  1  0  0  0  0
 21 27  4  0  0  0  0
 17 27  4  0  0  0  0
 16 28  4  0  0  0  0
 28 29  4  0  0  0  0
 12 29  4  0  0  0  0
 29 30  1  0  0  0  0
M  END
> <IC50(uM)>
0.01

> <Outcome>
1.0

> <BindingDB ID>
29224

> <BindingDB MonomerID>
16121

> <BindingDB Ligand Name>
4-({2,6-difluoro-4-[3-(trifluoromethoxy)phenyl]phenyl}carbamoyl)thiophene-3-carboxylic acid::Biphenyl-4-ylcarbamoyl Thiophene Analog 12

> <Curation/DataSource>
Curated from the literature by BindingDB

> <Article DOI>
10.1016/j.bmcl.2005.10.011

> <PMID>
16246558

> <Patent Number>
?

> <Authors>
Leban, J; Kralik, M; Mies, J; Baumgartner, R; Gassen, M; Tasler, S

> <Link to Ligand in BindingDB>
http://www.bindingdb.org/bind/chemsearch/marvin/MolStructure.jsp?monomerid=16121

> <Link to Ligand-Target Pair in BindingDB>
http://www.bindingdb.org/jsp/dbsearch/PrimarySearch_ki.jsp?energyterm=kJ/mole&tag=r21&monomerid=16121&enzyme=Dihydroorotate+Dehydrogenase+%28DHODH%29&column=ki&startPg=0&Increment=50&submit=Search

> <PubChem CID>
23647304

> <PubChem SID>
46516380

$$$$

  Mrv2115 07222212352D          

 29 31  0  0  0  0            999 V2000
   -4.0365   -6.5117    0.0000 C   0  0  0  0  0  0  0  0  0  0  0  0
   -3.3220   -6.0992    0.0000 C   0  0  0  0  0  0  0  0  0  0  0  0
   -2.6076   -6.5117    0.0000 C   0  0  0  0  0  0  0  0  0  0  0  0
   -1.8931   -6.0992    0.0000 C   0  0  0  0  0  0  0  0  0  0  0  0
   -1.1786   -6.5117    0.0000 C   0  0  0  0  0  0  0  0  0  0  0  0
   -0.4642   -6.0992    0.0000 O   0  0  0  0  0  0  0  0  0  0  0  0
    0.2503   -6.5117    0.0000 C   0  0  0  0  0  0  0  0  0  0  0  0
    0.2503   -7.3367    0.0000 O   0  0  0  0  0  0  0  0  0  0  0  0
    0.9648   -6.0992    0.0000 C   0  0  0  0  0  0  0  0  0  0  0  0
    0.9648   -5.2742    0.0000 C   0  0  0  0  0  0  0  0  0  0  0  0
    1.6793   -4.8617    0.0000 C   0  0  0  0  0  0  0  0  0  0  0  0
    2.3937   -5.2742    0.0000 C   0  0  0  0  0  0  0  0  0  0  0  0
    2.3937   -6.0992    0.0000 C   0  0  0  0  0  0  0  0  0  0  0  0
    1.6793   -6.5117    0.0000 C   0  0  0  0  0  0  0  0  0  0  0  0
    1.6793   -7.3367    0.0000 C   0  0  0  0  0  0  0  0  0  0  0  0
    0.9648   -7.7492    0.0000 N   0  0  0  0  0  0  0  0  0  0  0  0
    0.9648   -8.5742    0.0000 N   0  0  0  0  0  0  0  0  0  0  0  0
    1.6793   -8.9867    0.0000 C   0  0  0  0  0  0  0  0  0  0  0  0
    2.4329   -8.6511    0.0000 N   0  0  0  0  0  0  0  0  0  0  0  0
    2.9850   -9.2642    0.0000 C   0  0  0  0  0  0  0  0  0  0  0  0
    3.8054   -9.1780    0.0000 C   0  0  0  0  0  0  0  0  0  0  0  0
    4.1410   -8.4243    0.0000 C   0  0  0  0  0  0  0  0  0  0  0  0
    4.9615   -8.3381    0.0000 C   0  0  0  0  0  0  0  0  0  0  0  0
    5.4464   -9.0055    0.0000 C   0  0  0  0  0  0  0  0  0  0  0  0
    5.1109   -9.7592    0.0000 C   0  0  0  0  0  0  0  0  0  0  0  0
    4.2904   -9.8454    0.0000 C   0  0  0  0  0  0  0  0  0  0  0  0
    3.9548  -10.5991    0.0000 Cl  0  0  0  0  0  0  0  0  0  0  0  0
    2.5725   -9.9787    0.0000 C   0  0  0  0  0  0  0  0  0  0  0  0
    1.7655   -9.8072    0.0000 S   0  0  0  0  0  0  0  0  0  0  0  0
  1  2  1  0  0  0  0
  2  3  1  0  0  0  0
  3  4  1  0  0  0  0
  4  5  1  0  0  0  0
  5  6  1  0  0  0  0
  6  7  1  0  0  0  0
  7  8  2  0  0  0  0
  7  9  1  0  0  0  0
  9 10  4  0  0  0  0
 10 11  4  0  0  0  0
 11 12  4  0  0  0  0
 12 13  4  0  0  0  0
 13 14  4  0  0  0  0
  9 14  4  0  0  0  0
 14 15  1  0  0  0  0
 15 16  2  0  0  0  0
 16 17  1  0  0  0  0
 17 18  1  0  0  0  0
 18 19  4  0  0  0  0
 19 20  4  0  0  0  0
 20 21  1  0  0  0  0
 21 22  4  0  0  0  0
 22 23  4  0  0  0  0
 23 24  4  0  0  0  0
 24 25  4  0  0  0  0
 25 26  4  0  0  0  0
 21 26  4  0  0  0  0
 26 27  1  0  0  0  0
 20 28  4  0  0  0  0
 28 29  4  0  0  0  0
 18 29  4  0  0  0  0
M  END
> <IC50(uM)>
50.0

> <Outcome>
0.0

> <BindingDB ID>
1001140

> <BindingDB MonomerID>
482826

> <BindingDB Ligand Name>
US10919869, No.  A6

> <Curation/DataSource>
US Patent

> <Article DOI>
?

> <PMID>
?

> <Patent Number>
US10919869

> <Authors>
Li, H; Xu, Y; Wang, R; Zhao, Z; Song, W; Xu, L

> <Link to Ligand in BindingDB>
http://www.bindingdb.org/bind/chemsearch/marvin/MolStructure.jsp?monomerid=482826

> <Link to Ligand-Target Pair in BindingDB>
http://www.bindingdb.org/jsp/dbsearch/PrimarySearch_ki.jsp?energyterm=kJ/mole&tag=r21&monomerid=482826&enzyme=Dihydroorotate+dehydrogenase&column=ki&startPg=0&Increment=50&submit=Search

> <PubChem CID>
132157943

> <PubChem SID>
443551966

$$$$

  Mrv2115 07222212352D          

 33 36  0  0  0  0            999 V2000
   -0.6284    2.1599    0.0000 C   0  0  0  0  0  0  0  0  0  0  0  0
   -1.4534    2.1599    0.0000 C   0  0  0  0  0  0  0  0  0  0  0  0
   -1.8659    1.4455    0.0000 C   0  0  0  0  0  0  0  0  0  0  0  0
   -2.6909    1.4455    0.0000 C   0  0  0  0  0  0  0  0  0  0  0  0
   -3.1034    2.1599    0.0000 C   0  0  0  0  0  0  0  0  0  0  0  0
   -3.1034    0.7310    0.0000 O   0  0  0  0  0  0  0  0  0  0  0  0
   -2.6909    0.0165    0.0000 C   0  0  0  0  0  0  0  0  0  0  0  0
   -1.8659    0.0165    0.0000 C   0  0  0  0  0  0  0  0  0  0  0  0
   -1.4534   -0.6979    0.0000 C   0  0  0  0  0  0  0  0  0  0  0  0
   -0.6284   -0.6979    0.0000 N   0  0  0  0  0  0  0  0  0  0  0  0
   -0.1435   -1.3654    0.0000 N   0  0  0  0  0  0  0  0  0  0  0  0
    0.6411   -1.1104    0.0000 C   0  0  0  0  0  0  0  0  0  0  0  0
    0.6411   -0.2854    0.0000 N   0  0  0  0  0  0  0  0  0  0  0  0
   -0.1435   -0.0305    0.0000 C   0  0  0  0  0  0  0  0  0  0  0  0
   -0.3984    0.7541    0.0000 O   0  0  0  0  0  0  0  0  0  0  0  0
    1.3556    0.1271    0.0000 C   0  0  0  0  0  0  0  0  0  0  0  0
    2.0701   -0.2854    0.0000 C   0  0  0  0  0  0  0  0  0  0  0  0
    2.0701   -1.1104    0.0000 C   0  0  0  0  0  0  0  0  0  0  0  0
    1.3556   -1.5229    0.0000 C   0  0  0  0  0  0  0  0  0  0  0  0
   -1.8659   -1.4124    0.0000 C   0  0  0  0  0  0  0  0  0  0  0  0
   -1.4534   -2.1269    0.0000 F   0  0  0  0  0  0  0  0  0  0  0  0
   -2.6909   -1.4124    0.0000 C   0  0  0  0  0  0  0  0  0  0  0  0
   -3.1034   -0.6979    0.0000 C   0  0  0  0  0  0  0  0  0  0  0  0
   -3.9284   -0.6979    0.0000 C   0  0  0  0  0  0  0  0  0  0  0  0
   -4.3409    0.0165    0.0000 O   0  0  0  0  0  0  0  0  0  0  0  0
   -4.3409   -1.4124    0.0000 N   0  0  0  0  0  0  0  0  0  0  0  0
   -3.9284   -2.1269    0.0000 C   0  0  0  0  0  0  0  0  0  0  0  0
   -3.1034   -2.1269    0.0000 C   0  0  0  0  0  0  0  0  0  0  0  0
   -2.6909   -2.8414    0.0000 C   0  0  0  0  0  0  0  0  0  0  0  0
   -3.1034   -3.5558    0.0000 N   0  0  0  0  0  0  0  0  0  0  0  0
   -3.9284   -3.5558    0.0000 C   0  0  0  0  0  0  0  0  0  0  0  0
   -4.3409   -2.8414    0.0000 C   0  0  0  0  0  0  0  0  0  0  0  0
   -5.1659   -2.8414    0.0000 Cl  0  0  0  0  0  0  0  0  0  0  0  0
  1  2  1  0  0  0  0
  2  3  1  0  0  0  0
  3  4  1  0  0  0  0
  4  5  1  0  0  0  0
  4  6  1  0  0  0  0
  6  7  1  0  0  0  0
  7  8  4  0  0  0  0
  8  9  4  0  0  0  0
  9 10  1  0  0  0  0
 10 11  4  0  0  0  0
 11 12  4  0  0  0  0
 12 13  4  0  0  0  0
 13 14  4  0  0  0  0
 10 14  4  0  0  0  0
 14 15  2  0  0  0  0
 13 16  1  0  0  0  0
 16 17  1  0  0  0  0
 17 18  1  0  0  0  0
 18 19  1  0  0  0  0
 12 19  1  0  0  0  0
  9 20  4  0  0  0  0
 20 21  1  0  0  0  0
 20 22  4  0  0  0  0
 22 23  4  0  0  0  0
  7 23  4  0  0  0  0
 23 24  1  0  0  0  0
 24 25  2  0  0  0  0
 24 26  1  0  0  0  0
 26 27  1  0  0  0  0
 27 28  4  0  0  0  0
 28 29  4  0  0  0  0
 29 30  4  0  0  0  0
 30 31  4  0  0  0  0
 31 32  4  0  0  0  0
 27 32  4  0  0  0  0
 32 33  1  0  0  0  0
M  END
> <IC50(uM)>
0.17

> <Outcome>
1.0

> <BindingDB ID>
1020380

> <BindingDB MonomerID>
490337

> <BindingDB Ligand Name>
N-(3-chloropyridin-4-yl)-5-fluoro-4-(3-oxo-5,6,7,8-tetrahydro[1,2,4]triazolo[4,3-a]pyridin-2(3H)-yl)-2-[(2S)-pentan-2-yloxy]benzamide::US10968216, Example 5

> <Curation/DataSource>
US Patent

> <Article DOI>
?

> <PMID>
?

> <Patent Number>
US10968216

> <Authors>
Gradl, SN; Nguyen, D; Eis, K; Gunther, J; Stellfeld, T; Janzer, A; Christian, S; Mueller, T; Sheikh, SE; Zhou, HJ; Zhao, C; Sykes, DB; Ferrara, SJ; Liu, K; Herbert, SA; Merz, C; Niehues, M; Nising, CF; Schafer, M; Zimmermann, K; Knablein, J; Thede, K; Faupel, T

> <Link to Ligand in BindingDB>
http://www.bindingdb.org/bind/chemsearch/marvin/MolStructure.jsp?monomerid=490337

> <Link to Ligand-Target Pair in BindingDB>
http://www.bindingdb.org/jsp/dbsearch/PrimarySearch_ki.jsp?energyterm=kJ/mole&tag=r21&monomerid=490337&enzyme=Dihydroorotate+dehydrogenase&column=ki&startPg=0&Increment=50&submit=Search

> <PubChem CID>
134473888

> <PubChem SID>
447117064

$$$$

  Mrv2115 07222212352D          

 19 21  0  0  0  0            999 V2000
    1.4289   -2.4750    0.0000 O   0  0  0  0  0  0  0  0  0  0  0  0
    1.4289   -1.6500    0.0000 C   0  0  0  0  0  0  0  0  0  0  0  0
    0.7145   -1.2375    0.0000 C   0  0  0  0  0  0  0  0  0  0  0  0
    0.7145   -0.4125    0.0000 C   0  0  0  0  0  0  0  0  0  0  0  0
    0.0000    0.0000    0.0000 C   0  0  0  0  0  0  0  0  0  0  0  0
   -0.7145   -0.4125    0.0000 C   0  0  0  0  0  0  0  0  0  0  0  0
   -1.4289    0.0000    0.0000 C   0  0  0  0  0  0  0  0  0  0  0  0
   -1.4289    0.8250    0.0000 C   0  0  0  0  0  0  0  0  0  0  0  0
   -2.1434    1.2375    0.0000 O   0  0  0  0  0  0  0  0  0  0  0  0
   -0.7145    1.2375    0.0000 C   0  0  0  0  0  0  0  0  0  0  0  0
   -0.7145    2.0625    0.0000 O   0  0  0  0  0  0  0  0  0  0  0  0
    0.0000    0.8250    0.0000 C   0  0  0  0  0  0  0  0  0  0  0  0
    1.4289    0.0000    0.0000 O   0  0  0  0  0  0  0  0  0  0  0  0
    2.1434   -0.4125    0.0000 C   0  0  0  0  0  0  0  0  0  0  0  0
    2.8579    0.0000    0.0000 C   0  0  0  0  0  0  0  0  0  0  0  0
    3.5724   -0.4125    0.0000 C   0  0  0  0  0  0  0  0  0  0  0  0
    3.5724   -1.2375    0.0000 C   0  0  0  0  0  0  0  0  0  0  0  0
    2.8579   -1.6500    0.0000 C   0  0  0  0  0  0  0  0  0  0  0  0
    2.1434   -1.2375    0.0000 C   0  0  0  0  0  0  0  0  0  0  0  0
  1  2  2  0  0  0  0
  2  3  4  0  0  0  0
  3  4  4  0  0  0  0
  4  5  1  0  0  0  0
  5  6  4  0  0  0  0
  6  7  4  0  0  0  0
  7  8  4  0  0  0  0
  8  9  1  0  0  0  0
  8 10  4  0  0  0  0
 10 11  1  0  0  0  0
 10 12  4  0  0  0  0
  5 12  4  0  0  0  0
  4 13  4  0  0  0  0
 13 14  4  0  0  0  0
 14 15  4  0  0  0  0
 15 16  4  0  0  0  0
 16 17  4  0  0  0  0
 17 18  4  0  0  0  0
 18 19  4  0  0  0  0
  2 19  4  0  0  0  0
 14 19  4  0  0  0  0
M  END
> <IC50(uM)>
12.38

> <Outcome>
0.0

> <BindingDB ID>
50971930

> <BindingDB MonomerID>
50157555

> <BindingDB Ligand Name>
2-(3,4-dihydroxyphenyl)-4H-chromen-4-one::3',4'-dihydroxy flavone::3',4'-dihydroxyflavone::CHEMBL222556

> <Curation/DataSource>
ChEMBL

> <Article DOI>
10.1021/jm300630p

> <PMID>
22984987

> <Patent Number>
?

> <Authors>
Diao, Y; Lu, W; Jin, H; Zhu, J; Han, L; Xu, M; Gao, R; Shen, X; Zhao, Z; Liu, X; Xu, Y; Huang, J; Li, H

> <Link to Ligand in BindingDB>
http://www.bindingdb.org/bind/chemsearch/marvin/MolStructure.jsp?monomerid=50157555

> <Link to Ligand-Target Pair in BindingDB>
http://www.bindingdb.org/jsp/dbsearch/PrimarySearch_ki.jsp?energyterm=kJ/mole&tag=r21&monomerid=50157555&enzyme=Dihydroorotate+dehydrogenase&column=ki&startPg=0&Increment=50&submit=Search

> <PubChem CID>
145726

> <PubChem SID>
104044537

$$$$

  Mrv2115 07222212352D          

 36 38  0  0  0  0            999 V2000
    4.2868   -2.4750    0.0000 C   0  0  0  0  0  0  0  0  0  0  0  0
    3.5724   -2.8875    0.0000 C   0  0  0  0  0  0  0  0  0  0  0  0
    2.8579   -2.4750    0.0000 O   0  0  0  0  0  0  0  0  0  0  0  0
    2.1434   -2.8875    0.0000 C   0  0  0  0  0  0  0  0  0  0  0  0
    2.1434   -3.7125    0.0000 C   0  0  0  0  0  0  0  0  0  0  0  0
    1.4289   -4.1250    0.0000 C   0  0  0  0  0  0  0  0  0  0  0  0
    1.4289   -4.9500    0.0000 N   0  0  0  0  0  0  0  0  0  0  0  0
    2.0964   -5.4349    0.0000 N   0  0  0  0  0  0  0  0  0  0  0  0
    1.8414   -6.2195    0.0000 C   0  0  0  0  0  0  0  0  0  0  0  0
    2.3264   -6.8870    0.0000 C   0  0  0  0  0  0  0  0  0  0  0  0
    2.8113   -7.5544    0.0000 C   0  0  0  0  0  0  0  0  0  0  0  0
    2.9938   -6.4021    0.0000 C   0  0  0  0  0  0  0  0  0  0  0  0
    1.6589   -7.3719    0.0000 O   0  0  0  0  0  0  0  0  0  0  0  0
    1.0164   -6.2195    0.0000 N   0  0  0  0  0  0  0  0  0  0  0  0
    0.5315   -6.8870    0.0000 C   0  0  0  0  0  0  0  0  0  0  0  0
    0.7615   -5.4349    0.0000 C   0  0  0  0  0  0  0  0  0  0  0  0
   -0.0231   -5.1800    0.0000 O   0  0  0  0  0  0  0  0  0  0  0  0
    0.7145   -3.7125    0.0000 C   0  0  0  0  0  0  0  0  0  0  0  0
    0.0000   -4.1250    0.0000 F   0  0  0  0  0  0  0  0  0  0  0  0
    0.7145   -2.8875    0.0000 C   0  0  0  0  0  0  0  0  0  0  0  0
    1.4289   -2.4750    0.0000 C   0  0  0  0  0  0  0  0  0  0  0  0
    1.4289   -1.6500    0.0000 C   0  0  0  0  0  0  0  0  0  0  0  0
    2.1434   -1.2375    0.0000 O   0  0  0  0  0  0  0  0  0  0  0  0
    0.7145   -1.2375    0.0000 N   0  0  0  0  0  0  0  0  0  0  0  0
    0.7145   -0.4125    0.0000 C   0  0  0  0  0  0  0  0  0  0  0  0
    0.0000    0.0000    0.0000 C   0  0  0  0  0  0  0  0  0  0  0  0
   -0.7145   -0.4125    0.0000 Cl  0  0  0  0  0  0  0  0  0  0  0  0
    0.0000    0.8250    0.0000 C   0  0  0  0  0  0  0  0  0  0  0  0
    0.7145    1.2375    0.0000 C   0  0  0  0  0  0  0  0  0  0  0  0
    1.4289    0.8250    0.0000 C   0  0  0  0  0  0  0  0  0  0  0  0
    1.4289    0.0000    0.0000 C   0  0  0  0  0  0  0  0  0  0  0  0
    2.1434   -0.4125    0.0000 Cl  0  0  0  0  0  0  0  0  0  0  0  0
    3.5724   -3.7125    0.0000 C   0  0  0  0  0  0  0  0  0  0  0  0
    2.7474   -3.7125    0.0000 F   0  0  0  0  0  0  0  0  0  0  0  0
    4.3974   -3.7125    0.0000 F   0  0  0  0  0  0  0  0  0  0  0  0
    3.5724   -4.5375    0.0000 F   0  0  0  0  0  0  0  0  0  0  0  0
  1  2  1  0  0  0  0
  2  3  1  0  0  0  0
  3  4  1  0  0  0  0
  4  5  4  0  0  0  0
  5  6  4  0  0  0  0
  6  7  1  0  0  0  0
  7  8  4  0  0  0  0
  8  9  4  0  0  0  0
  9 10  1  0  0  0  0
 10 11  1  0  0  0  0
 10 12  1  0  0  0  0
 10 13  1  0  0  0  0
  9 14  4  0  0  0  0
 14 15  1  0  0  0  0
 14 16  4  0  0  0  0
  7 16  4  0  0  0  0
 16 17  2  0  0  0  0
  6 18  4  0  0  0  0
 18 19  1  0  0  0  0
 18 20  4  0  0  0  0
 20 21  4  0  0  0  0
  4 21  4  0  0  0  0
 21 22  1  0  0  0  0
 22 23  2  0  0  0  0
 22 24  1  0  0  0  0
 24 25  1  0  0  0  0
 25 26  4  0  0  0  0
 26 27  1  0  0  0  0
 26 28  4  0  0  0  0
 28 29  4  0  0  0  0
 29 30  4  0  0  0  0
 30 31  4  0  0  0  0
 25 31  4  0  0  0  0
 31 32  1  0  0  0  0
  2 33  1  0  0  0  0
 33 34  1  0  0  0  0
 33 35  1  0  0  0  0
 33 36  1  0  0  0  0
M  END
> <IC50(uM)>
0.0045

> <Outcome>
1.0

> <BindingDB ID>
972591; 1098745

> <BindingDB MonomerID>
470467

> <BindingDB Ligand Name>
N-(2,6-dichlorophenyl)-5-fluoro-4-[3-(2-hydroxypropan-2-yl)-4-methyl-5-oxo-4,5-dihydro-1H-1,2,4-triazol-1-yl]-2-{[(2S)-1,1,1-trifluoropropan-2-yl]oxy}benzamide::US10815215, Example 133; N-(2,6-dichlorophenyl)-5-fluoro-4-[3-(2-hydroxypropan-2-yl)-4-methyl-5-oxo-4,5-dihydro-1H-1,2,4-triazol-1-yl]-2-{[(2S)-1,1,1-trifluoropropan-2-yl]oxy}benzamide::US10815215, Example 133::US11130745, Example 133

> <Curation/DataSource>
US Patent

> <Article DOI>
?

> <PMID>
?

> <Patent Number>
US10815215; US11130745

> <Authors>
Gradl, SN; Nguyen, D; Eis, K; Gunther, J; Stellfeld, T; Janzer, A; Christian, S; Muller, T; Sheikh, SE; Zhou, HJ; Zhao, C; Sykes, DB; Ferrara, SJ; Liu, K; Krober, M; Merz, C; Niehues, M; Schafer, M; Zimmermann, K; Nising, CF; Gradl, SN; Nguyen, D; Eis, K; Gunther, J; Stellfeld, T; Janzer, A; Christian, S; Muller, T; Sheikh, SE; Sykes, DB; Ferrara, SJ; Krober, M; Merz, C; Niehues, M; Schafer, M; Zimmermann, K; Nising, CF

> <Link to Ligand in BindingDB>
http://www.bindingdb.org/bind/chemsearch/marvin/MolStructure.jsp?monomerid=470467

> <Link to Ligand-Target Pair in BindingDB>
http://www.bindingdb.org/jsp/dbsearch/PrimarySearch_ki.jsp?energyterm=kJ/mole&tag=r21&monomerid=470467&enzyme=Dihydroorotate+dehydrogenase&column=ki&startPg=0&Increment=50&submit=Search

> <PubChem CID>
134470109

> <PubChem SID>
441609644

$$$$

  Mrv2115 07222212352D          

 23 24  0  0  0  0            999 V2000
    1.4289   -0.8250    0.0000 C   0  0  0  0  0  0  0  0  0  0  0  0
    1.4289   -1.6500    0.0000 C   0  0  0  0  0  0  0  0  0  0  0  0
    0.6039   -1.6500    0.0000 C   0  0  0  0  0  0  0  0  0  0  0  0
    2.2539   -1.6500    0.0000 C   0  0  0  0  0  0  0  0  0  0  0  0
    1.4289   -2.4750    0.0000 C   0  0  0  0  0  0  0  0  0  0  0  0
    2.1434   -2.8875    0.0000 C   0  0  0  0  0  0  0  0  0  0  0  0
    2.1434   -3.7125    0.0000 C   0  0  0  0  0  0  0  0  0  0  0  0
    1.4289   -4.1250    0.0000 C   0  0  0  0  0  0  0  0  0  0  0  0
    1.4289   -4.9500    0.0000 C   0  0  0  0  0  0  0  0  0  0  0  0
    2.1434   -5.3625    0.0000 C   0  0  0  0  0  0  0  0  0  0  0  0
    2.1434   -6.1875    0.0000 C   0  0  0  0  0  0  0  0  0  0  0  0
    2.8579   -6.6000    0.0000 C   0  0  0  0  0  0  0  0  0  0  0  0
    3.5724   -6.1875    0.0000 C   0  0  0  0  0  0  0  0  0  0  0  0
    4.2868   -6.6000    0.0000 O   0  0  0  0  0  0  0  0  0  0  0  0
    3.5724   -5.3625    0.0000 O   0  0  0  0  0  0  0  0  0  0  0  0
    2.8579   -7.4250    0.0000 N   0  0  0  0  0  0  0  0  0  0  0  0
    2.1434   -7.8375    0.0000 C   0  0  0  0  0  0  0  0  0  0  0  0
    2.1434   -8.6625    0.0000 O   0  0  0  0  0  0  0  0  0  0  0  0
    1.4289   -7.4250    0.0000 N   0  0  0  0  0  0  0  0  0  0  0  0
    1.4289   -6.6000    0.0000 C   0  0  0  0  0  0  0  0  0  0  0  0
    0.7145   -6.1875    0.0000 O   0  0  0  0  0  0  0  0  0  0  0  0
    0.7145   -3.7125    0.0000 C   0  0  0  0  0  0  0  0  0  0  0  0
    0.7145   -2.8875    0.0000 C   0  0  0  0  0  0  0  0  0  0  0  0
  1  2  1  0  0  0  0
  2  3  1  0  0  0  0
  2  4  1  0  0  0  0
  2  5  1  0  0  0  0
  5  6  4  0  0  0  0
  6  7  4  0  0  0  0
  7  8  4  0  0  0  0
  8  9  1  0  0  0  0
  9 10  1  0  0  0  0
 10 11  1  0  0  0  0
 11 12  4  0  0  0  0
 12 13  1  0  0  0  0
 13 14  2  0  0  0  0
 13 15  1  0  0  0  0
 12 16  4  0  0  0  0
 16 17  4  0  0  0  0
 17 18  2  0  0  0  0
 17 19  4  0  0  0  0
 19 20  4  0  0  0  0
 11 20  4  0  0  0  0
 20 21  2  0  0  0  0
  8 22  4  0  0  0  0
 22 23  4  0  0  0  0
  5 23  4  0  0  0  0
M  STY  2   1 DAT   2 DAT
M  SAL   1  1  16
M  SDT   1 MRV_IMPLICIT_H                                        
M  SDD   1     0.5304   -0.4125    DR    ALL  0       0  
M  SED   1 IMPL_H1
M  SAL   2  1  19
M  SDT   2 MRV_IMPLICIT_H                                        
M  SDD   2     0.5304   -0.4125    DR    ALL  0       0  
M  SED   2 IMPL_H1
M  END
> <IC50(uM)>
0.017

> <Outcome>
1.0

> <BindingDB ID>
50555406

> <BindingDB MonomerID>
50211731

> <BindingDB Ligand Name>
CHEMBL3892598

> <Curation/DataSource>
ChEMBL

> <Article DOI>
10.1016/j.bmc.2017.01.009

> <PMID>
28118956

> <Patent Number>
?

> <Authors>
Inaoka, DK; Iida, M; Hashimoto, S; Tabuchi, T; Kuranaga, T; Balogun, EO; Honma, T; Tanaka, A; Harada, S; Nara, T; Kita, K; Inoue, M

> <Link to Ligand in BindingDB>
http://www.bindingdb.org/bind/chemsearch/marvin/MolStructure.jsp?monomerid=50211731

> <Link to Ligand-Target Pair in BindingDB>
http://www.bindingdb.org/jsp/dbsearch/PrimarySearch_ki.jsp?energyterm=kJ/mole&tag=r21&monomerid=50211731&enzyme=Dihydroorotate+dehydrogenase&column=ki&startPg=0&Increment=50&submit=Search

> <PubChem CID>
134136646

> <PubChem SID>
375983068

$$$$

  Mrv2115 07222212352D          

 26 29  0  0  0  0            999 V2000
    5.1156   -3.2652    0.0000 C   0  0  0  0  0  0  0  0  0  0  0  0
    4.4011   -3.6777    0.0000 C   0  0  0  0  0  0  0  0  0  0  0  0
    4.4011   -4.5027    0.0000 C   0  0  0  0  0  0  0  0  0  0  0  0
    3.6866   -4.9152    0.0000 C   0  0  0  0  0  0  0  0  0  0  0  0
    3.6866   -5.7402    0.0000 N   0  0  0  0  0  0  0  0  0  0  0  0
    4.4011   -6.1527    0.0000 C   0  0  0  0  0  0  0  0  0  0  0  0
    5.1548   -5.8172    0.0000 C   0  0  0  0  0  0  0  0  0  0  0  0
    5.7068   -6.4303    0.0000 C   0  0  0  0  0  0  0  0  0  0  0  0
    6.5318   -6.4303    0.0000 C   0  0  0  0  0  0  0  0  0  0  0  0
    6.9443   -5.7158    0.0000 C   0  0  0  0  0  0  0  0  0  0  0  0
    6.9443   -7.1447    0.0000 C   0  0  0  0  0  0  0  0  0  0  0  0
    6.5318   -7.8592    0.0000 C   0  0  0  0  0  0  0  0  0  0  0  0
    5.7068   -7.8592    0.0000 C   0  0  0  0  0  0  0  0  0  0  0  0
    5.2943   -8.5737    0.0000 C   0  0  0  0  0  0  0  0  0  0  0  0
    5.2943   -7.1447    0.0000 C   0  0  0  0  0  0  0  0  0  0  0  0
    4.4874   -6.9732    0.0000 C   0  0  0  0  0  0  0  0  0  0  0  0
    2.9722   -4.5027    0.0000 N   0  0  0  0  0  0  0  0  0  0  0  0
    2.1876   -4.7577    0.0000 N   0  0  0  0  0  0  0  0  0  0  0  0
    1.7026   -4.0902    0.0000 C   0  0  0  0  0  0  0  0  0  0  0  0
    0.8776   -4.0902    0.0000 C   0  0  0  0  0  0  0  0  0  0  0  0
    0.0526   -4.0902    0.0000 C   0  0  0  0  0  0  0  0  0  0  0  0
    0.8776   -3.2652    0.0000 F   0  0  0  0  0  0  0  0  0  0  0  0
    0.8776   -4.9152    0.0000 F   0  0  0  0  0  0  0  0  0  0  0  0
    2.1876   -3.4228    0.0000 N   0  0  0  0  0  0  0  0  0  0  0  0
    2.9722   -3.6777    0.0000 C   0  0  0  0  0  0  0  0  0  0  0  0
    3.6866   -3.2652    0.0000 N   0  0  0  0  0  0  0  0  0  0  0  0
  1  2  1  0  0  0  0
  2  3  4  0  0  0  0
  3  4  4  0  0  0  0
  4  5  1  0  0  0  0
  5  6  1  0  0  0  0
  6  7  1  0  0  0  0
  7  8  1  0  0  0  0
  8  9  4  0  0  0  0
  9 10  1  0  0  0  0
  9 11  4  0  0  0  0
 11 12  4  0  0  0  0
 12 13  4  0  0  0  0
 13 14  1  0  0  0  0
 13 15  4  0  0  0  0
  8 15  4  0  0  0  0
 15 16  1  0  0  0  0
  6 16  1  0  0  0  0
  4 17  4  0  0  0  0
 17 18  4  0  0  0  0
 18 19  4  0  0  0  0
 19 20  1  0  0  0  0
 20 21  1  0  0  0  0
 20 22  1  0  0  0  0
 20 23  1  0  0  0  0
 19 24  4  0  0  0  0
 24 25  4  0  0  0  0
 17 25  4  0  0  0  0
 25 26  4  0  0  0  0
  2 26  4  0  0  0  0
M  END
> <IC50(uM)>
100.0

> <Outcome>
0.0

> <BindingDB ID>
51373010

> <BindingDB MonomerID>
50555377

> <BindingDB Ligand Name>
CHEMBL4790441

> <Curation/DataSource>
ChEMBL

> <Article DOI>
?

> <PMID>
27127993

> <Patent Number>
?

> <Authors>
Kokkonda, S; Deng, X; White, KL; Coteron, JM; Marco, M; de Las Heras, L; White, J; El Mazouni, F; Tomchick, DR; Manjalanagara, K; Rudra, KR; Chen, G; Morizzi, J; Ryan, E; Kaminsky, W; Leroy, D; Mart??nez-Mart??nez, MS; Jimenez-Diaz, MB; Bazaga, SF; Angulo-Barturen, I; Waterson, D; Burrows, JN; Matthews, D; Charman, SA; Phillips, MA; Rathod, PK

> <Link to Ligand in BindingDB>
http://www.bindingdb.org/bind/chemsearch/marvin/MolStructure.jsp?monomerid=50555377

> <Link to Ligand-Target Pair in BindingDB>
http://www.bindingdb.org/jsp/dbsearch/PrimarySearch_ki.jsp?energyterm=kJ/mole&tag=r21&monomerid=50555377&enzyme=Dihydroorotate+dehydrogenase&column=ki&startPg=0&Increment=50&submit=Search

> <PubChem CID>
162669622

> <PubChem SID>
461694145

$$$$

  Mrv2115 07222212352D          

 37 39  0  0  0  0            999 V2000
    0.7145   -3.7125    0.0000 C   0  0  0  0  0  0  0  0  0  0  0  0
    1.4289   -4.1250    0.0000 C   0  0  0  0  0  0  0  0  0  0  0  0
    1.4289   -4.9500    0.0000 N   0  0  0  0  0  0  0  0  0  0  0  0
    0.7615   -5.4349    0.0000 C   0  0  0  0  0  0  0  0  0  0  0  0
   -0.0231   -5.1800    0.0000 C   0  0  0  0  0  0  0  0  0  0  0  0
   -0.1946   -4.3730    0.0000 O   0  0  0  0  0  0  0  0  0  0  0  0
   -0.6362   -5.7320    0.0000 O   0  0  0  0  0  0  0  0  0  0  0  0
   -1.4208   -5.4771    0.0000 C   0  0  0  0  0  0  0  0  0  0  0  0
    1.0164   -6.2195    0.0000 N   0  0  0  0  0  0  0  0  0  0  0  0
    1.8414   -6.2195    0.0000 N   0  0  0  0  0  0  0  0  0  0  0  0
    2.3264   -6.8870    0.0000 C   0  0  0  0  0  0  0  0  0  0  0  0
    3.1468   -6.8007    0.0000 C   0  0  0  0  0  0  0  0  0  0  0  0
    3.6318   -7.4682    0.0000 C   0  0  0  0  0  0  0  0  0  0  0  0
    4.4522   -7.3820    0.0000 O   0  0  0  0  0  0  0  0  0  0  0  0
    4.7878   -6.6283    0.0000 C   0  0  0  0  0  0  0  0  0  0  0  0
    4.3029   -5.9608    0.0000 C   0  0  0  0  0  0  0  0  0  0  0  0
    5.6083   -6.5420    0.0000 C   0  0  0  0  0  0  0  0  0  0  0  0
    5.6945   -7.3625    0.0000 F   0  0  0  0  0  0  0  0  0  0  0  0
    5.5221   -5.7216    0.0000 F   0  0  0  0  0  0  0  0  0  0  0  0
    6.4288   -6.4558    0.0000 F   0  0  0  0  0  0  0  0  0  0  0  0
    3.2962   -8.2219    0.0000 C   0  0  0  0  0  0  0  0  0  0  0  0
    3.7811   -8.8893    0.0000 C   0  0  0  0  0  0  0  0  0  0  0  0
    3.4456   -9.6430    0.0000 O   0  0  0  0  0  0  0  0  0  0  0  0
    4.6016   -8.8031    0.0000 N   0  0  0  0  0  0  0  0  0  0  0  0
    5.0865   -9.4705    0.0000 C   0  0  0  0  0  0  0  0  0  0  0  0
    5.9070   -9.3843    0.0000 C   0  0  0  0  0  0  0  0  0  0  0  0
    6.2426   -8.6306    0.0000 F   0  0  0  0  0  0  0  0  0  0  0  0
    6.3919  -10.0517    0.0000 C   0  0  0  0  0  0  0  0  0  0  0  0
    6.0564  -10.8054    0.0000 C   0  0  0  0  0  0  0  0  0  0  0  0
    5.2359  -10.8916    0.0000 C   0  0  0  0  0  0  0  0  0  0  0  0
    4.7510  -10.2242    0.0000 C   0  0  0  0  0  0  0  0  0  0  0  0
    3.9305  -10.3104    0.0000 F   0  0  0  0  0  0  0  0  0  0  0  0
    2.4757   -8.3081    0.0000 C   0  0  0  0  0  0  0  0  0  0  0  0
    1.9908   -7.6407    0.0000 C   0  0  0  0  0  0  0  0  0  0  0  0
    1.1703   -7.7269    0.0000 F   0  0  0  0  0  0  0  0  0  0  0  0
    2.0964   -5.4349    0.0000 C   0  0  0  0  0  0  0  0  0  0  0  0
    2.8810   -5.1800    0.0000 O   0  0  0  0  0  0  0  0  0  0  0  0
  1  2  1  0  0  0  0
  2  3  1  0  0  0  0
  3  4  4  0  0  0  0
  4  5  1  0  0  0  0
  5  6  2  0  0  0  0
  5  7  1  0  0  0  0
  7  8  1  0  0  0  0
  4  9  4  0  0  0  0
  9 10  4  0  0  0  0
 10 11  1  0  0  0  0
 11 12  4  0  0  0  0
 12 13  4  0  0  0  0
 13 14  1  0  0  0  0
 14 15  1  0  0  0  0
 15 16  1  0  0  0  0
 15 17  1  0  0  0  0
 17 18  1  0  0  0  0
 17 19  1  0  0  0  0
 17 20  1  0  0  0  0
 13 21  4  0  0  0  0
 21 22  1  0  0  0  0
 22 23  2  0  0  0  0
 22 24  1  0  0  0  0
 24 25  1  0  0  0  0
 25 26  4  0  0  0  0
 26 27  1  0  0  0  0
 26 28  4  0  0  0  0
 28 29  4  0  0  0  0
 29 30  4  0  0  0  0
 30 31  4  0  0  0  0
 25 31  4  0  0  0  0
 31 32  1  0  0  0  0
 21 33  4  0  0  0  0
 33 34  4  0  0  0  0
 11 34  4  0  0  0  0
 34 35  1  0  0  0  0
 10 36  4  0  0  0  0
  3 36  4  0  0  0  0
 36 37  2  0  0  0  0
M  END
> <IC50(uM)>
0.005875

> <Outcome>
1.0

> <BindingDB ID>
1098849; 972695

> <BindingDB MonomerID>
470573

> <BindingDB Ligand Name>
US10815215, Example 233::US11130745, Example 233::methyl 1-(4-[(2,6-difluorophenyl)carbamoyl]-2-fluoro-5-{[(2S)-1,1,1-trifluoropropan-2-yl]oxy}phenyl)-4-ethyl-5-oxo-4,5-dihydro-1H-1,2,4-triazole-3-carboxylate; US10815215, Example 233::methyl 1-(4-[(2,6-difluorophenyl)carbamoyl]-2-fluoro-5-{[(2S)-1,1,1-trifluoropropan-2-yl]oxy}phenyl)-4-ethyl-5-oxo-4,5-dihydro-1H-1,2,4-triazole-3-carboxylate

> <Curation/DataSource>
US Patent

> <Article DOI>
?

> <PMID>
?

> <Patent Number>
US11130745; US10815215

> <Authors>
Gradl, SN; Nguyen, D; Eis, K; Gunther, J; Stellfeld, T; Janzer, A; Christian, S; Muller, T; Sheikh, SE; Sykes, DB; Ferrara, SJ; Krober, M; Merz, C; Niehues, M; Schafer, M; Zimmermann, K; Nising, CF; Gradl, SN; Nguyen, D; Eis, K; Gunther, J; Stellfeld, T; Janzer, A; Christian, S; Muller, T; Sheikh, SE; Zhou, HJ; Zhao, C; Sykes, DB; Ferrara, SJ; Liu, K; Krober, M; Merz, C; Niehues, M; Schafer, M; Zimmermann, K; Nising, CF

> <Link to Ligand in BindingDB>
http://www.bindingdb.org/bind/chemsearch/marvin/MolStructure.jsp?monomerid=470573

> <Link to Ligand-Target Pair in BindingDB>
http://www.bindingdb.org/jsp/dbsearch/PrimarySearch_ki.jsp?energyterm=kJ/mole&tag=r21&monomerid=470573&enzyme=Dihydroorotate+dehydrogenase&column=ki&startPg=0&Increment=50&submit=Search

> <PubChem CID>
134470287

> <PubChem SID>
441609749

$$$$

  Mrv2115 07222212352D          

 21 22  0  0  0  0            999 V2000
    0.0000   -1.6500    0.0000 C   0  0  0  0  0  0  0  0  0  0  0  0
    0.0000   -2.4750    0.0000 C   0  0  0  0  0  0  0  0  0  0  0  0
    0.7145   -2.8875    0.0000 C   0  0  0  0  0  0  0  0  0  0  0  0
    1.4289   -2.4750    0.0000 C   0  0  0  0  0  0  0  0  0  0  0  0
    1.4289   -1.6500    0.0000 O   0  0  0  0  0  0  0  0  0  0  0  0
    2.1434   -2.8875    0.0000 N   0  0  0  0  0  0  0  0  0  0  0  0
    2.8579   -2.4750    0.0000 C   0  0  0  0  0  0  0  0  0  0  0  0
    2.8579   -1.6500    0.0000 C   0  0  0  0  0  0  0  0  0  0  0  0
    3.5724   -1.2375    0.0000 C   0  0  0  0  0  0  0  0  0  0  0  0
    4.2868   -1.6500    0.0000 C   0  0  0  0  0  0  0  0  0  0  0  0
    5.0013   -1.2375    0.0000 F   0  0  0  0  0  0  0  0  0  0  0  0
    4.2868   -2.4750    0.0000 C   0  0  0  0  0  0  0  0  0  0  0  0
    5.0013   -2.8875    0.0000 F   0  0  0  0  0  0  0  0  0  0  0  0
    3.5724   -2.8875    0.0000 C   0  0  0  0  0  0  0  0  0  0  0  0
    0.7145   -3.7125    0.0000 C   0  0  0  0  0  0  0  0  0  0  0  0
    0.0000   -4.1250    0.0000 C   0  0  0  0  0  0  0  0  0  0  0  0
   -0.7145   -3.7125    0.0000 C   0  0  0  0  0  0  0  0  0  0  0  0
   -0.7145   -2.8875    0.0000 C   0  0  0  0  0  0  0  0  0  0  0  0
   -1.4289   -2.4750    0.0000 N   0  3  0  0  0  0  0  0  0  0  0  0
   -2.1434   -2.8875    0.0000 O   0  0  0  0  0  0  0  0  0  0  0  0
   -1.4289   -1.6500    0.0000 O   0  5  0  0  0  0  0  0  0  0  0  0
  1  2  1  0  0  0  0
  2  3  4  0  0  0  0
  3  4  1  0  0  0  0
  4  5  2  0  0  0  0
  4  6  1  0  0  0  0
  6  7  1  0  0  0  0
  7  8  4  0  0  0  0
  8  9  4  0  0  0  0
  9 10  4  0  0  0  0
 10 11  1  0  0  0  0
 10 12  4  0  0  0  0
 12 13  1  0  0  0  0
 12 14  4  0  0  0  0
  7 14  4  0  0  0  0
  3 15  4  0  0  0  0
 15 16  4  0  0  0  0
 16 17  4  0  0  0  0
 17 18  4  0  0  0  0
  2 18  4  0  0  0  0
 18 19  1  0  0  0  0
 19 20  2  0  0  0  0
 19 21  1  0  0  0  0
M  CHG  2  19   1  21  -1
M  END
> <IC50(uM)>
200.0

> <Outcome>
0.0

> <BindingDB ID>
28100

> <BindingDB MonomerID>
15352

> <BindingDB Ligand Name>
ChemBridge compound no. 7::N-(3,4-difluorophenyl)-2-methyl-3-nitrobenzamide

> <Curation/DataSource>
Curated from the literature by BindingDB

> <Article DOI>
10.1074/jbc.M501100200

> <PMID>
15795226

> <Patent Number>
?

> <Authors>
Baldwin, J; Michnoff, CH; Malmquist, NA; White, J; Roth, MG; Rathod, PK; Phillips, MA

> <Link to Ligand in BindingDB>
http://www.bindingdb.org/bind/chemsearch/marvin/MolStructure.jsp?monomerid=15352

> <Link to Ligand-Target Pair in BindingDB>
http://www.bindingdb.org/jsp/dbsearch/PrimarySearch_ki.jsp?energyterm=kJ/mole&tag=r21&monomerid=15352&enzyme=Dihydroorotate+Dehydrogenase+%28DHODH%29&column=ki&startPg=0&Increment=50&submit=Search

> <PubChem CID>
870967

> <PubChem SID>
46515652

$$$$

  Mrv2115 07222212352D          

 27 28  0  0  0  0            999 V2000
    0.7145   -1.2375    0.0000 O   0  0  0  0  0  0  0  0  0  0  0  0
    1.4289   -1.6500    0.0000 C   0  0  0  0  0  0  0  0  0  0  0  0
    2.1434   -1.2375    0.0000 O   0  0  0  0  0  0  0  0  0  0  0  0
    1.4289   -2.4750    0.0000 C   0  0  0  0  0  0  0  0  0  0  0  0
    2.1434   -2.8875    0.0000 N   0  0  0  0  0  0  0  0  0  0  0  0
    2.1434   -3.7125    0.0000 C   0  0  0  0  0  0  0  0  0  0  0  0
    2.8579   -4.1250    0.0000 O   0  0  0  0  0  0  0  0  0  0  0  0
    1.4289   -4.1250    0.0000 N   0  0  0  0  0  0  0  0  0  0  0  0
    0.7145   -3.7125    0.0000 C   0  0  0  0  0  0  0  0  0  0  0  0
    0.0000   -4.1250    0.0000 O   0  0  0  0  0  0  0  0  0  0  0  0
    0.7145   -2.8875    0.0000 C   0  0  0  0  0  0  0  0  0  0  0  0
    0.0000   -2.4750    0.0000 C   0  0  0  0  0  0  0  0  0  0  0  0
   -0.7145   -2.8875    0.0000 C   0  0  0  0  0  0  0  0  0  0  0  0
   -1.4289   -2.4750    0.0000 C   0  0  0  0  0  0  0  0  0  0  0  0
   -2.1434   -2.8875    0.0000 C   0  0  0  0  0  0  0  0  0  0  0  0
   -2.8579   -2.4750    0.0000 C   0  0  0  0  0  0  0  0  0  0  0  0
   -3.5724   -2.8875    0.0000 C   0  0  0  0  0  0  0  0  0  0  0  0
   -4.2868   -3.3000    0.0000 F   0  0  0  0  0  0  0  0  0  0  0  0
   -3.9849   -2.1730    0.0000 F   0  0  0  0  0  0  0  0  0  0  0  0
   -3.1599   -3.6020    0.0000 F   0  0  0  0  0  0  0  0  0  0  0  0
   -2.8579   -1.6500    0.0000 C   0  0  0  0  0  0  0  0  0  0  0  0
   -2.1434   -1.2375    0.0000 C   0  0  0  0  0  0  0  0  0  0  0  0
   -2.1434   -0.4125    0.0000 C   0  0  0  0  0  0  0  0  0  0  0  0
   -2.1434    0.4125    0.0000 F   0  0  0  0  0  0  0  0  0  0  0  0
   -1.3184   -0.4125    0.0000 F   0  0  0  0  0  0  0  0  0  0  0  0
   -2.9684   -0.4125    0.0000 F   0  0  0  0  0  0  0  0  0  0  0  0
   -1.4289   -1.6500    0.0000 C   0  0  0  0  0  0  0  0  0  0  0  0
  1  2  2  0  0  0  0
  2  3  1  0  0  0  0
  2  4  1  0  0  0  0
  4  5  4  0  0  0  0
  5  6  4  0  0  0  0
  6  7  2  0  0  0  0
  6  8  4  0  0  0  0
  8  9  4  0  0  0  0
  9 10  2  0  0  0  0
  9 11  4  0  0  0  0
  4 11  4  0  0  0  0
 11 12  1  0  0  0  0
 12 13  1  0  0  0  0
 13 14  1  0  0  0  0
 14 15  4  0  0  0  0
 15 16  4  0  0  0  0
 16 17  1  0  0  0  0
 17 18  1  0  0  0  0
 17 19  1  0  0  0  0
 17 20  1  0  0  0  0
 16 21  4  0  0  0  0
 21 22  4  0  0  0  0
 22 23  1  0  0  0  0
 23 24  1  0  0  0  0
 23 25  1  0  0  0  0
 23 26  1  0  0  0  0
 22 27  4  0  0  0  0
 14 27  4  0  0  0  0
M  STY  2   1 DAT   2 DAT
M  SAL   1  1   5
M  SDT   1 MRV_IMPLICIT_H                                        
M  SDD   1     0.5304   -0.4125    DR    ALL  0       0  
M  SED   1 IMPL_H1
M  SAL   2  1   8
M  SDT   2 MRV_IMPLICIT_H                                        
M  SDD   2     0.6482   -0.4125    DR    ALL  0       0  
M  SED   2 IMPL_H1
M  END
> <IC50(uM)>
0.011

> <Outcome>
1.0

> <BindingDB ID>
50555275

> <BindingDB MonomerID>
50211709

> <BindingDB Ligand Name>
CHEMBL3926030

> <Curation/DataSource>
ChEMBL

> <Article DOI>
10.1016/j.bmc.2017.01.009

> <PMID>
28118956

> <Patent Number>
?

> <Authors>
Inaoka, DK; Iida, M; Hashimoto, S; Tabuchi, T; Kuranaga, T; Balogun, EO; Honma, T; Tanaka, A; Harada, S; Nara, T; Kita, K; Inoue, M

> <Link to Ligand in BindingDB>
http://www.bindingdb.org/bind/chemsearch/marvin/MolStructure.jsp?monomerid=50211709

> <Link to Ligand-Target Pair in BindingDB>
http://www.bindingdb.org/jsp/dbsearch/PrimarySearch_ki.jsp?energyterm=kJ/mole&tag=r21&monomerid=50211709&enzyme=Dihydroorotate+dehydrogenase&column=ki&startPg=0&Increment=50&submit=Search

> <PubChem CID>
134140808

> <PubChem SID>
375983052

$$$$

  Mrv2115 07222212352D          

 37 41  0  0  0  0            999 V2000
    2.7512   -6.6616    0.0000 C   0  0  0  0  0  0  0  0  0  0  0  0
    2.7512   -7.4866    0.0000 C   0  0  0  0  0  0  0  0  0  0  0  0
    3.4186   -7.9715    0.0000 C   0  0  0  0  0  0  0  0  0  0  0  0
    3.1637   -8.7562    0.0000 C   0  0  0  0  0  0  0  0  0  0  0  0
    3.6486   -9.4236    0.0000 C   0  0  0  0  0  0  0  0  0  0  0  0
    4.4691   -9.3374    0.0000 C   0  0  0  0  0  0  0  0  0  0  0  0
    4.9540  -10.0048    0.0000 C   0  0  0  0  0  0  0  0  0  0  0  0
    4.6184  -10.7585    0.0000 C   0  0  0  0  0  0  0  0  0  0  0  0
    3.7980  -10.8447    0.0000 C   0  0  0  0  0  0  0  0  0  0  0  0
    3.3130  -10.1773    0.0000 C   0  0  0  0  0  0  0  0  0  0  0  0
    2.3387   -8.7562    0.0000 C   0  0  0  0  0  0  0  0  0  0  0  0
    1.8538   -9.4236    0.0000 C   0  0  0  0  0  0  0  0  0  0  0  0
    2.1893  -10.1773    0.0000 O   0  0  0  0  0  0  0  0  0  0  0  0
    1.0333   -9.3374    0.0000 C   0  0  0  0  0  0  0  0  0  0  0  0
    0.6977   -8.5837    0.0000 O   0  0  0  0  0  0  0  0  0  0  0  0
    0.5484  -10.0048    0.0000 N   0  0  0  0  0  0  0  0  0  0  0  0
   -0.2721   -9.9186    0.0000 C   0  0  0  0  0  0  0  0  0  0  0  0
   -0.7571  -10.5860    0.0000 C   0  0  0  0  0  0  0  0  0  0  0  0
   -1.5775  -10.4998    0.0000 C   0  0  0  0  0  0  0  0  0  0  0  0
   -1.9131   -9.7461    0.0000 C   0  0  0  0  0  0  0  0  0  0  0  0
   -2.7336   -9.6598    0.0000 N   0  0  0  0  0  0  0  0  0  0  0  0
   -3.2185  -10.3273    0.0000 C   0  0  0  0  0  0  0  0  0  0  0  0
   -4.0390  -10.2411    0.0000 C   0  0  0  0  0  0  0  0  0  0  0  0
   -4.3745   -9.4874    0.0000 N   0  0  0  0  0  0  0  0  0  0  0  0
   -5.1950   -9.4011    0.0000 C   0  0  0  0  0  0  0  0  0  0  0  0
   -5.6799  -10.0686    0.0000 N   0  0  0  0  0  0  0  0  0  0  0  0
   -6.5004   -9.9823    0.0000 C   0  0  0  0  0  0  0  0  0  0  0  0
   -6.8360   -9.2287    0.0000 C   0  0  0  0  0  0  0  0  0  0  0  0
   -7.6565   -9.1424    0.0000 F   0  0  0  0  0  0  0  0  0  0  0  0
   -6.3511   -8.5612    0.0000 C   0  0  0  0  0  0  0  0  0  0  0  0
   -5.5306   -8.6475    0.0000 N   0  0  0  0  0  0  0  0  0  0  0  0
   -3.8896   -8.8199    0.0000 C   0  0  0  0  0  0  0  0  0  0  0  0
   -3.0691   -8.9062    0.0000 C   0  0  0  0  0  0  0  0  0  0  0  0
   -1.4282   -9.0786    0.0000 C   0  0  0  0  0  0  0  0  0  0  0  0
   -0.6077   -9.1649    0.0000 C   0  0  0  0  0  0  0  0  0  0  0  0
    2.0837   -7.9715    0.0000 N   0  0  0  0  0  0  0  0  0  0  0  0
    1.2991   -7.7166    0.0000 C   0  0  0  0  0  0  0  0  0  0  0  0
  1  2  1  0  0  0  0
  2  3  4  0  0  0  0
  3  4  4  0  0  0  0
  4  5  1  0  0  0  0
  5  6  4  0  0  0  0
  6  7  4  0  0  0  0
  7  8  4  0  0  0  0
  8  9  4  0  0  0  0
  9 10  4  0  0  0  0
  5 10  4  0  0  0  0
  4 11  4  0  0  0  0
 11 12  1  0  0  0  0
 12 13  2  0  0  0  0
 12 14  1  0  0  0  0
 14 15  2  0  0  0  0
 14 16  1  0  0  0  0
 16 17  1  0  0  0  0
 17 18  4  0  0  0  0
 18 19  4  0  0  0  0
 19 20  4  0  0  0  0
 20 21  1  0  0  0  0
 21 22  1  0  0  0  0
 22 23  1  0  0  0  0
 23 24  1  0  0  0  0
 24 25  1  0  0  0  0
 25 26  4  0  0  0  0
 26 27  4  0  0  0  0
 27 28  4  0  0  0  0
 28 29  1  0  0  0  0
 28 30  4  0  0  0  0
 30 31  4  0  0  0  0
 25 31  4  0  0  0  0
 24 32  1  0  0  0  0
 32 33  1  0  0  0  0
 21 33  1  0  0  0  0
 20 34  4  0  0  0  0
 34 35  4  0  0  0  0
 17 35  4  0  0  0  0
 11 36  4  0  0  0  0
  2 36  4  0  0  0  0
 36 37  1  0  0  0  0
M  END
> <IC50(uM)>
100.0

> <Outcome>
0.0

> <BindingDB ID>
51292547

> <BindingDB MonomerID>
50526857

> <BindingDB Ligand Name>
F901318::OLOROFIM::Olorofim

> <Curation/DataSource>
ChEMBL

> <Article DOI>
10.1016/j.ejmech.2019.111681

> <PMID>
31557612

> <Patent Number>
?

> <Authors>
Boschi, D; Pippione, AC; Sainas, S; Lolli, ML

> <Link to Ligand in BindingDB>
http://www.bindingdb.org/bind/chemsearch/marvin/MolStructure.jsp?monomerid=50526857

> <Link to Ligand-Target Pair in BindingDB>
http://www.bindingdb.org/jsp/dbsearch/PrimarySearch_ki.jsp?energyterm=kJ/mole&tag=r21&monomerid=50526857&enzyme=Dihydroorotate+dehydrogenase&column=ki&startPg=0&Increment=50&submit=Search

> <PubChem CID>
91885568

> <PubChem SID>
440735439

$$$$

  Mrv2115 07222212352D          

 31 34  0  0  0  0            999 V2000
    0.0000   -1.6500    0.0000 C   0  0  0  0  0  0  0  0  0  0  0  0
    0.7145   -1.2375    0.0000 C   0  0  0  0  0  0  0  0  0  0  0  0
    0.7145   -0.4125    0.0000 C   0  0  0  0  0  0  0  0  0  0  0  0
    0.0000    0.0000    0.0000 C   0  0  0  0  0  0  0  0  0  0  0  0
   -0.7145   -0.4125    0.0000 C   0  0  0  0  0  0  0  0  0  0  0  0
   -1.4289    0.0000    0.0000 C   0  0  0  0  0  0  0  0  0  0  0  0
   -1.4289    0.8250    0.0000 C   0  0  0  0  0  0  0  0  0  0  0  0
   -2.1434    1.2375    0.0000 C   0  0  0  0  0  0  0  0  0  0  0  0
   -2.8579    0.8250    0.0000 C   0  0  0  0  0  0  0  0  0  0  0  0
   -3.5724    1.2375    0.0000 C   0  0  0  0  0  0  0  0  0  0  0  0
   -3.5724    2.0625    0.0000 C   0  0  0  0  0  0  0  0  0  0  0  0
   -2.8579    2.4750    0.0000 C   0  0  0  0  0  0  0  0  0  0  0  0
   -2.1434    2.0625    0.0000 C   0  0  0  0  0  0  0  0  0  0  0  0
   -1.4289    2.4750    0.0000 F   0  0  0  0  0  0  0  0  0  0  0  0
   -0.7145    1.2375    0.0000 C   0  0  0  0  0  0  0  0  0  0  0  0
    0.0000    0.8250    0.0000 C   0  0  0  0  0  0  0  0  0  0  0  0
    1.4289    0.0000    0.0000 N   0  0  0  0  0  0  0  0  0  0  0  0
    2.1434   -0.4125    0.0000 C   0  0  0  0  0  0  0  0  0  0  0  0
    2.8579    0.0000    0.0000 C   0  0  0  0  0  0  0  0  0  0  0  0
    3.5724   -0.4125    0.0000 N   0  0  0  0  0  0  0  0  0  0  0  0
    3.5724   -1.2375    0.0000 C   0  0  0  0  0  0  0  0  0  0  0  0
    4.2868   -1.6500    0.0000 C   0  0  0  0  0  0  0  0  0  0  0  0
    5.0013   -2.0625    0.0000 F   0  0  0  0  0  0  0  0  0  0  0  0
    3.8743   -2.3645    0.0000 F   0  0  0  0  0  0  0  0  0  0  0  0
    4.6993   -0.9355    0.0000 F   0  0  0  0  0  0  0  0  0  0  0  0
    2.8579   -1.6500    0.0000 C   0  0  0  0  0  0  0  0  0  0  0  0
    2.1434   -1.2375    0.0000 C   0  0  0  0  0  0  0  0  0  0  0  0
    1.4289   -1.6500    0.0000 C   0  0  0  0  0  0  0  0  0  0  0  0
    1.4289   -2.4750    0.0000 C   0  0  0  0  0  0  0  0  0  0  0  0
    0.7145   -2.8875    0.0000 O   0  0  0  0  0  0  0  0  0  0  0  0
    2.1434   -2.8875    0.0000 O   0  0  0  0  0  0  0  0  0  0  0  0
  1  2  1  0  0  0  0
  2  3  4  0  0  0  0
  3  4  1  0  0  0  0
  4  5  4  0  0  0  0
  5  6  4  0  0  0  0
  6  7  4  0  0  0  0
  7  8  1  0  0  0  0
  8  9  4  0  0  0  0
  9 10  4  0  0  0  0
 10 11  4  0  0  0  0
 11 12  4  0  0  0  0
 12 13  4  0  0  0  0
  8 13  4  0  0  0  0
 13 14  1  0  0  0  0
  7 15  4  0  0  0  0
 15 16  4  0  0  0  0
  4 16  4  0  0  0  0
  3 17  4  0  0  0  0
 17 18  4  0  0  0  0
 18 19  4  0  0  0  0
 19 20  4  0  0  0  0
 20 21  4  0  0  0  0
 21 22  1  0  0  0  0
 22 23  1  0  0  0  0
 22 24  1  0  0  0  0
 22 25  1  0  0  0  0
 21 26  4  0  0  0  0
 26 27  4  0  0  0  0
 18 27  4  0  0  0  0
 27 28  4  0  0  0  0
  2 28  4  0  0  0  0
 28 29  1  0  0  0  0
 29 30  2  0  0  0  0
 29 31  1  0  0  0  0
M  END
> <IC50(uM)>
0.012

> <Outcome>
1.0

> <BindingDB ID>
51126213

> <BindingDB MonomerID>
50461897

> <BindingDB Ligand Name>
CHEMBL4227747

> <Curation/DataSource>
ChEMBL

> <Article DOI>
10.1021/acs.jmedchem.7b01862

> <PMID>
29727569

> <Patent Number>
?

> <Authors>
Madak, JT; Cuthbertson, CR; Miyata, Y; Tamura, S; Petrunak, EM; Stuckey, JA; Han, Y; He, M; Sun, D; Showalter, HD; Neamati, N

> <Link to Ligand in BindingDB>
http://www.bindingdb.org/bind/chemsearch/marvin/MolStructure.jsp?monomerid=50461897

> <Link to Ligand-Target Pair in BindingDB>
http://www.bindingdb.org/jsp/dbsearch/PrimarySearch_ki.jsp?energyterm=kJ/mole&tag=r21&monomerid=50461897&enzyme=Dihydroorotate+dehydrogenase&column=ki&startPg=0&Increment=50&submit=Search

> <PubChem CID>
145968875

> <PubChem SID>
433929162

$$$$

  Mrv2115 07222212352D          

 37 41  0  0  0  0            999 V2000
   -1.8659    1.4455    0.0000 C   0  0  0  0  0  0  0  0  0  0  0  0
   -2.6909    1.4455    0.0000 C   0  0  0  0  0  0  0  0  0  0  0  0
   -3.1034    0.7310    0.0000 O   0  0  0  0  0  0  0  0  0  0  0  0
   -2.6909    0.0165    0.0000 C   0  0  0  0  0  0  0  0  0  0  0  0
   -1.8659    0.0165    0.0000 C   0  0  0  0  0  0  0  0  0  0  0  0
   -1.4534   -0.6979    0.0000 C   0  0  0  0  0  0  0  0  0  0  0  0
   -0.6284   -0.6979    0.0000 N   0  0  0  0  0  0  0  0  0  0  0  0
   -0.1435   -1.3654    0.0000 N   0  0  0  0  0  0  0  0  0  0  0  0
    0.6411   -1.1104    0.0000 C   0  0  0  0  0  0  0  0  0  0  0  0
    0.6411   -0.2854    0.0000 N   0  0  0  0  0  0  0  0  0  0  0  0
   -0.1435   -0.0305    0.0000 C   0  0  0  0  0  0  0  0  0  0  0  0
   -0.3984    0.7541    0.0000 O   0  0  0  0  0  0  0  0  0  0  0  0
    1.3556    0.1271    0.0000 C   0  0  0  0  0  0  0  0  0  0  0  0
    2.0701   -0.2854    0.0000 C   0  0  0  0  0  0  0  0  0  0  0  0
    2.0701   -1.1104    0.0000 C   0  0  0  0  0  0  0  0  0  0  0  0
    1.3556   -1.5229    0.0000 C   0  0  0  0  0  0  0  0  0  0  0  0
   -1.8659   -1.4124    0.0000 C   0  0  0  0  0  0  0  0  0  0  0  0
   -1.4534   -2.1269    0.0000 F   0  0  0  0  0  0  0  0  0  0  0  0
   -2.6909   -1.4124    0.0000 C   0  0  0  0  0  0  0  0  0  0  0  0
   -3.1034   -0.6979    0.0000 C   0  0  0  0  0  0  0  0  0  0  0  0
   -3.9284   -0.6979    0.0000 C   0  0  0  0  0  0  0  0  0  0  0  0
   -4.3409    0.0165    0.0000 O   0  0  0  0  0  0  0  0  0  0  0  0
   -4.3409   -1.4124    0.0000 N   0  0  0  0  0  0  0  0  0  0  0  0
   -3.9284   -2.1269    0.0000 C   0  0  0  0  0  0  0  0  0  0  0  0
   -3.1034   -2.1269    0.0000 C   0  0  0  0  0  0  0  0  0  0  0  0
   -2.6909   -2.8414    0.0000 C   0  0  0  0  0  0  0  0  0  0  0  0
   -3.1034   -3.5558    0.0000 C   0  0  0  0  0  0  0  0  0  0  0  0
   -2.3282   -3.8380    0.0000 F   0  0  0  0  0  0  0  0  0  0  0  0
   -3.2467   -4.3683    0.0000 F   0  0  0  0  0  0  0  0  0  0  0  0
   -3.9284   -3.5558    0.0000 C   0  0  0  0  0  0  0  0  0  0  0  0
   -4.3409   -2.8414    0.0000 C   0  0  0  0  0  0  0  0  0  0  0  0
   -3.1034    2.1599    0.0000 C   0  0  0  0  0  0  0  0  0  0  0  0
   -3.9284    2.1599    0.0000 C   0  0  0  0  0  0  0  0  0  0  0  0
   -4.3409    2.8744    0.0000 C   0  0  0  0  0  0  0  0  0  0  0  0
   -3.9284    3.5889    0.0000 C   0  0  0  0  0  0  0  0  0  0  0  0
   -3.1034    3.5889    0.0000 C   0  0  0  0  0  0  0  0  0  0  0  0
   -2.6909    2.8744    0.0000 C   0  0  0  0  0  0  0  0  0  0  0  0
  1  2  1  0  0  0  0
  2  3  1  0  0  0  0
  3  4  1  0  0  0  0
  4  5  4  0  0  0  0
  5  6  4  0  0  0  0
  6  7  1  0  0  0  0
  7  8  4  0  0  0  0
  8  9  4  0  0  0  0
  9 10  4  0  0  0  0
 10 11  4  0  0  0  0
  7 11  4  0  0  0  0
 11 12  2  0  0  0  0
 10 13  1  0  0  0  0
 13 14  1  0  0  0  0
 14 15  1  0  0  0  0
 15 16  1  0  0  0  0
  9 16  1  0  0  0  0
  6 17  4  0  0  0  0
 17 18  1  0  0  0  0
 17 19  4  0  0  0  0
 19 20  4  0  0  0  0
  4 20  4  0  0  0  0
 20 21  1  0  0  0  0
 21 22  2  0  0  0  0
 21 23  1  0  0  0  0
 23 24  1  0  0  0  0
 24 25  1  0  0  0  0
 25 26  1  0  0  0  0
 26 27  1  0  0  0  0
 27 28  1  0  0  0  0
 27 29  1  0  0  0  0
 27 30  1  0  0  0  0
 30 31  1  0  0  0  0
 24 31  1  0  0  0  0
  2 32  1  0  0  0  0
 32 33  1  0  0  0  0
 33 34  1  0  0  0  0
 34 35  1  0  0  0  0
 35 36  1  0  0  0  0
 36 37  1  0  0  0  0
 32 37  1  0  0  0  0
M  END
> <IC50(uM)>
0.039

> <Outcome>
1.0

> <BindingDB ID>
1020498

> <BindingDB MonomerID>
490446

> <BindingDB Ligand Name>
2-[(1S)-1-cyclohexylethoxy]-N-(4,4-difluorocyclohexyl)-5-fluoro-4-(3-oxo-5,6,7,8-tetrahydro[1,2,4]triazolo[4,3-a]pyridin-2(3H)-yl)benzamide::US10968216, Example 114

> <Curation/DataSource>
US Patent

> <Article DOI>
?

> <PMID>
?

> <Patent Number>
US10968216

> <Authors>
Gradl, SN; Nguyen, D; Eis, K; Gunther, J; Stellfeld, T; Janzer, A; Christian, S; Mueller, T; Sheikh, SE; Zhou, HJ; Zhao, C; Sykes, DB; Ferrara, SJ; Liu, K; Herbert, SA; Merz, C; Niehues, M; Nising, CF; Schafer, M; Zimmermann, K; Knablein, J; Thede, K; Faupel, T

> <Link to Ligand in BindingDB>
http://www.bindingdb.org/bind/chemsearch/marvin/MolStructure.jsp?monomerid=490446

> <Link to Ligand-Target Pair in BindingDB>
http://www.bindingdb.org/jsp/dbsearch/PrimarySearch_ki.jsp?energyterm=kJ/mole&tag=r21&monomerid=490446&enzyme=Dihydroorotate+dehydrogenase&column=ki&startPg=0&Increment=50&submit=Search

> <PubChem CID>
134474518

> <PubChem SID>
447117173

$$$$

  Mrv2115 07222212352D          

 34 37  0  0  0  0            999 V2000
    0.2747   -5.7410    0.0000 C   0  0  0  0  0  0  0  0  0  0  0  0
   -0.5100   -5.4861    0.0000 C   0  0  0  0  0  0  0  0  0  0  0  0
   -0.7649   -4.7015    0.0000 N   0  0  0  0  0  0  0  0  0  0  0  0
   -1.5899   -4.7015    0.0000 N   0  0  0  0  0  0  0  0  0  0  0  0
   -2.0748   -4.0340    0.0000 C   0  0  0  0  0  0  0  0  0  0  0  0
   -2.8953   -4.1203    0.0000 C   0  0  0  0  0  0  0  0  0  0  0  0
   -3.3802   -3.4528    0.0000 C   0  0  0  0  0  0  0  0  0  0  0  0
   -4.2007   -3.5391    0.0000 O   0  0  0  0  0  0  0  0  0  0  0  0
   -4.5363   -4.2927    0.0000 C   0  0  0  0  0  0  0  0  0  0  0  0
   -4.0513   -4.9602    0.0000 C   0  0  0  0  0  0  0  0  0  0  0  0
   -5.3567   -4.3790    0.0000 C   0  0  0  0  0  0  0  0  0  0  0  0
   -5.4430   -3.5585    0.0000 F   0  0  0  0  0  0  0  0  0  0  0  0
   -5.2705   -5.1995    0.0000 F   0  0  0  0  0  0  0  0  0  0  0  0
   -6.1772   -4.4652    0.0000 F   0  0  0  0  0  0  0  0  0  0  0  0
   -3.0447   -2.6992    0.0000 C   0  0  0  0  0  0  0  0  0  0  0  0
   -3.5296   -2.0317    0.0000 C   0  0  0  0  0  0  0  0  0  0  0  0
   -4.3501   -2.1180    0.0000 O   0  0  0  0  0  0  0  0  0  0  0  0
   -3.1940   -1.2780    0.0000 N   0  0  0  0  0  0  0  0  0  0  0  0
   -3.6789   -0.6106    0.0000 C   0  0  0  0  0  0  0  0  0  0  0  0
   -4.4994   -0.6968    0.0000 C   0  0  0  0  0  0  0  0  0  0  0  0
   -4.9844   -0.0294    0.0000 C   0  0  0  0  0  0  0  0  0  0  0  0
   -4.6488    0.7243    0.0000 C   0  0  0  0  0  0  0  0  0  0  0  0
   -3.8283    0.8105    0.0000 C   0  0  0  0  0  0  0  0  0  0  0  0
   -3.3434    0.1431    0.0000 C   0  0  0  0  0  0  0  0  0  0  0  0
   -2.5229    0.2293    0.0000 F   0  0  0  0  0  0  0  0  0  0  0  0
   -2.2242   -2.6129    0.0000 C   0  0  0  0  0  0  0  0  0  0  0  0
   -1.7393   -3.2804    0.0000 C   0  0  0  0  0  0  0  0  0  0  0  0
   -0.9188   -3.1941    0.0000 F   0  0  0  0  0  0  0  0  0  0  0  0
   -1.8448   -5.4861    0.0000 C   0  0  0  0  0  0  0  0  0  0  0  0
   -2.6295   -5.7410    0.0000 O   0  0  0  0  0  0  0  0  0  0  0  0
   -1.1774   -5.9710    0.0000 N   0  0  0  0  0  0  0  0  0  0  0  0
   -1.1774   -6.7960    0.0000 C   0  0  0  0  0  0  0  0  0  0  0  0
   -0.7649   -7.5105    0.0000 C   0  0  0  0  0  0  0  0  0  0  0  0
   -1.5899   -7.5105    0.0000 C   0  0  0  0  0  0  0  0  0  0  0  0
  1  2  1  0  0  0  0
  2  3  4  0  0  0  0
  3  4  4  0  0  0  0
  4  5  1  0  0  0  0
  5  6  4  0  0  0  0
  6  7  4  0  0  0  0
  7  8  1  0  0  0  0
  8  9  1  0  0  0  0
  9 10  1  0  0  0  0
  9 11  1  0  0  0  0
 11 12  1  0  0  0  0
 11 13  1  0  0  0  0
 11 14  1  0  0  0  0
  7 15  4  0  0  0  0
 15 16  1  0  0  0  0
 16 17  2  0  0  0  0
 16 18  1  0  0  0  0
 18 19  1  0  0  0  0
 19 20  4  0  0  0  0
 20 21  4  0  0  0  0
 21 22  4  0  0  0  0
 22 23  4  0  0  0  0
 23 24  4  0  0  0  0
 19 24  4  0  0  0  0
 24 25  1  0  0  0  0
 15 26  4  0  0  0  0
 26 27  4  0  0  0  0
  5 27  4  0  0  0  0
 27 28  1  0  0  0  0
  4 29  4  0  0  0  0
 29 30  2  0  0  0  0
 29 31  4  0  0  0  0
  2 31  4  0  0  0  0
 31 32  1  0  0  0  0
 32 33  1  0  0  0  0
 33 34  1  0  0  0  0
 32 34  1  0  0  0  0
M  END
> <IC50(uM)>
0.5

> <Outcome>
1.0

> <BindingDB ID>
972524

> <BindingDB MonomerID>
470399

> <BindingDB Ligand Name>
4-(4-cyclopropyl-3-methyl-5-oxo-4,5-dihydro-1H-1,2,4-triazol-1-yl)-5-fluoro-N-(2-fluorophenyl)-2-{[(2S)-1,1,1-trifluoropropan-2-yl]oxy}benzamide::US10815215, Example 58

> <Curation/DataSource>
US Patent

> <Article DOI>
?

> <PMID>
?

> <Patent Number>
US10815215

> <Authors>
Gradl, SN; Nguyen, D; Eis, K; Gunther, J; Stellfeld, T; Janzer, A; Christian, S; Muller, T; Sheikh, SE; Zhou, HJ; Zhao, C; Sykes, DB; Ferrara, SJ; Liu, K; Krober, M; Merz, C; Niehues, M; Schafer, M; Zimmermann, K; Nising, CF

> <Link to Ligand in BindingDB>
http://www.bindingdb.org/bind/chemsearch/marvin/MolStructure.jsp?monomerid=470399

> <Link to Ligand-Target Pair in BindingDB>
http://www.bindingdb.org/jsp/dbsearch/PrimarySearch_ki.jsp?energyterm=kJ/mole&tag=r21&monomerid=470399&enzyme=Dihydroorotate+dehydrogenase&column=ki&startPg=0&Increment=50&submit=Search

> <PubChem CID>
134469907

> <PubChem SID>
441609576

$$$$

  Mrv2115 07222212352D          

 19 20  0  0  0  0            999 V2000
    2.0367   -0.4741    0.0000 C   0  0  0  0  0  0  0  0  0  0  0  0
    2.0367   -1.2991    0.0000 C   0  0  0  0  0  0  0  0  0  0  0  0
    2.7041   -1.7840    0.0000 N   0  0  0  0  0  0  0  0  0  0  0  0
    2.4492   -2.5687    0.0000 N   0  0  0  0  0  0  0  0  0  0  0  0
    1.6242   -2.5687    0.0000 C   0  0  0  0  0  0  0  0  0  0  0  0
    1.1393   -3.2361    0.0000 N   0  0  0  0  0  0  0  0  0  0  0  0
    0.3188   -3.1499    0.0000 C   0  0  0  0  0  0  0  0  0  0  0  0
   -0.1661   -3.8173    0.0000 C   0  0  0  0  0  0  0  0  0  0  0  0
   -0.9866   -3.7311    0.0000 C   0  0  0  0  0  0  0  0  0  0  0  0
   -1.3222   -2.9774    0.0000 C   0  0  0  0  0  0  0  0  0  0  0  0
   -2.1426   -2.8911    0.0000 C   0  0  0  0  0  0  0  0  0  0  0  0
   -2.9631   -2.8049    0.0000 C   0  0  0  0  0  0  0  0  0  0  0  0
   -2.0564   -2.0707    0.0000 C   0  0  0  0  0  0  0  0  0  0  0  0
   -2.2289   -3.7116    0.0000 C   0  0  0  0  0  0  0  0  0  0  0  0
   -0.8372   -2.3099    0.0000 C   0  0  0  0  0  0  0  0  0  0  0  0
   -0.0168   -2.3962    0.0000 C   0  0  0  0  0  0  0  0  0  0  0  0
    1.3693   -1.7840    0.0000 C   0  0  0  0  0  0  0  0  0  0  0  0
    0.5846   -1.5291    0.0000 C   0  0  0  0  0  0  0  0  0  0  0  0
   -0.2000   -1.2742    0.0000 N   0  0  0  0  0  0  0  0  0  0  0  0
  1  2  1  0  0  0  0
  2  3  4  0  0  0  0
  3  4  4  0  0  0  0
  4  5  4  0  0  0  0
  5  6  1  0  0  0  0
  6  7  1  0  0  0  0
  7  8  4  0  0  0  0
  8  9  4  0  0  0  0
  9 10  4  0  0  0  0
 10 11  1  0  0  0  0
 11 12  1  0  0  0  0
 11 13  1  0  0  0  0
 11 14  1  0  0  0  0
 10 15  4  0  0  0  0
 15 16  4  0  0  0  0
  7 16  4  0  0  0  0
  5 17  4  0  0  0  0
  2 17  4  0  0  0  0
 17 18  1  0  0  0  0
 18 19  3  0  0  0  0
M  STY  1   1 DAT
M  SAL   1  1   4
M  SDT   1 MRV_IMPLICIT_H                                        
M  SDD   1     0.5304   -0.4125    DR    ALL  0       0  
M  SED   1 IMPL_H1
M  END
> <IC50(uM)>
3.6

> <Outcome>
0.0

> <BindingDB ID>
50786768

> <BindingDB MonomerID>
50066590

> <BindingDB Ligand Name>
3-(4-tert-Butyl-phenylamino)-5-methyl-1H-pyrazole-4-carbonitrile::CHEMBL120640

> <Curation/DataSource>
ChEMBL

> <Article DOI>
10.1021/jm981028c

> <PMID>
9719606

> <Patent Number>
?

> <Authors>
Papageorgiou, C; Albert, R; Floersheim, P; Lemaire, M; Bitch, F; Weber, HP; Andersen, E; Hungerford, V; Schreier, MH

> <Link to Ligand in BindingDB>
http://www.bindingdb.org/bind/chemsearch/marvin/MolStructure.jsp?monomerid=50066590

> <Link to Ligand-Target Pair in BindingDB>
http://www.bindingdb.org/jsp/dbsearch/PrimarySearch_ki.jsp?energyterm=kJ/mole&tag=r21&monomerid=50066590&enzyme=Dihydroorotate+dehydrogenase&column=ki&startPg=0&Increment=50&submit=Search

> <PubChem CID>
10491179

> <PubChem SID>
103961210

$$$$

  Mrv2115 07222212352D          

 16 17  0  0  0  0            999 V2000
    1.6439   -3.9098    0.0000 C   0  0  0  0  0  0  0  0  0  0  0  0
    2.3584   -3.4973    0.0000 C   0  0  0  0  0  0  0  0  0  0  0  0
    3.0728   -3.9098    0.0000 C   0  0  0  0  0  0  0  0  0  0  0  0
    3.7873   -3.4973    0.0000 N   0  0  0  0  0  0  0  0  0  0  0  0
    4.5018   -3.9098    0.0000 C   0  0  0  0  0  0  0  0  0  0  0  0
    4.5018   -4.7348    0.0000 O   0  0  0  0  0  0  0  0  0  0  0  0
    5.2162   -3.4973    0.0000 C   0  0  0  0  0  0  0  0  0  0  0  0
    5.3025   -2.6768    0.0000 C   0  0  0  0  0  0  0  0  0  0  0  0
    6.1094   -2.5053    0.0000 C   0  0  0  0  0  0  0  0  0  0  0  0
    6.5219   -3.2198    0.0000 C   0  0  0  0  0  0  0  0  0  0  0  0
    7.3424   -3.3060    0.0000 N   0  0  0  0  0  0  0  0  0  0  0  0
    7.8945   -2.6929    0.0000 C   0  0  0  0  0  0  0  0  0  0  0  0
    8.6481   -3.0285    0.0000 C   0  0  0  0  0  0  0  0  0  0  0  0
    8.5619   -3.8490    0.0000 C   0  0  0  0  0  0  0  0  0  0  0  0
    7.7549   -4.0205    0.0000 N   0  0  0  0  0  0  0  0  0  0  0  0
    5.9699   -3.8329    0.0000 S   0  0  0  0  0  0  0  0  0  0  0  0
  1  2  1  0  0  0  0
  2  3  1  0  0  0  0
  3  4  1  0  0  0  0
  4  5  1  0  0  0  0
  5  6  2  0  0  0  0
  5  7  1  0  0  0  0
  7  8  4  0  0  0  0
  8  9  4  0  0  0  0
  9 10  4  0  0  0  0
 10 11  1  0  0  0  0
 11 12  4  0  0  0  0
 12 13  4  0  0  0  0
 13 14  4  0  0  0  0
 14 15  4  0  0  0  0
 11 15  4  0  0  0  0
 10 16  4  0  0  0  0
  7 16  4  0  0  0  0
M  END
> <IC50(uM)>
30.0

> <Outcome>
0.0

> <BindingDB ID>
248386

> <BindingDB MonomerID>
120282

> <BindingDB Ligand Name>
US8703811, 9

> <Curation/DataSource>
US Patent

> <Article DOI>
?

> <PMID>
?

> <Patent Number>
US8703811

> <Authors>
Bastos, C; Booker, ML; Celatka, CA; Clardy, JC; Cortese, J; Patel, VP; Skerlj, R; Wiegand, RC; Wirth, DF

> <Link to Ligand in BindingDB>
http://www.bindingdb.org/bind/chemsearch/marvin/MolStructure.jsp?monomerid=120282

> <Link to Ligand-Target Pair in BindingDB>
http://www.bindingdb.org/jsp/dbsearch/PrimarySearch_ki.jsp?energyterm=kJ/mole&tag=r21&monomerid=120282&enzyme=Dihydroorotate+dehydrogenase&column=ki&startPg=0&Increment=50&submit=Search

> <PubChem CID>
44480859

> <PubChem SID>
220231076

$$$$

  Mrv2115 07222212352D          

 35 37  0  0  0  0            999 V2000
    4.2868   -2.4750    0.0000 C   0  0  0  0  0  0  0  0  0  0  0  0
    3.5724   -2.8875    0.0000 C   0  0  0  0  0  0  0  0  0  0  0  0
    2.8579   -2.4750    0.0000 O   0  0  0  0  0  0  0  0  0  0  0  0
    2.1434   -2.8875    0.0000 C   0  0  0  0  0  0  0  0  0  0  0  0
    2.1434   -3.7125    0.0000 C   0  0  0  0  0  0  0  0  0  0  0  0
    1.4289   -4.1250    0.0000 C   0  0  0  0  0  0  0  0  0  0  0  0
    1.4289   -4.9500    0.0000 N   0  0  0  0  0  0  0  0  0  0  0  0
    2.0964   -5.4349    0.0000 N   0  0  0  0  0  0  0  0  0  0  0  0
    1.8414   -6.2195    0.0000 C   0  0  0  0  0  0  0  0  0  0  0  0
    2.3264   -6.8870    0.0000 C   0  0  0  0  0  0  0  0  0  0  0  0
    1.9908   -7.6407    0.0000 C   0  0  0  0  0  0  0  0  0  0  0  0
    2.4757   -8.3081    0.0000 N   0  0  0  0  0  0  0  0  0  0  0  0
    1.0164   -6.2195    0.0000 N   0  0  0  0  0  0  0  0  0  0  0  0
    0.5315   -6.8870    0.0000 C   0  0  0  0  0  0  0  0  0  0  0  0
    0.7615   -5.4349    0.0000 C   0  0  0  0  0  0  0  0  0  0  0  0
   -0.0231   -5.1800    0.0000 O   0  0  0  0  0  0  0  0  0  0  0  0
    0.7145   -3.7125    0.0000 C   0  0  0  0  0  0  0  0  0  0  0  0
    0.0000   -4.1250    0.0000 F   0  0  0  0  0  0  0  0  0  0  0  0
    0.7145   -2.8875    0.0000 C   0  0  0  0  0  0  0  0  0  0  0  0
    1.4289   -2.4750    0.0000 C   0  0  0  0  0  0  0  0  0  0  0  0
    1.4289   -1.6500    0.0000 C   0  0  0  0  0  0  0  0  0  0  0  0
    2.1434   -1.2375    0.0000 O   0  0  0  0  0  0  0  0  0  0  0  0
    0.7145   -1.2375    0.0000 N   0  0  0  0  0  0  0  0  0  0  0  0
    0.7145   -0.4125    0.0000 C   0  0  0  0  0  0  0  0  0  0  0  0
    0.0000    0.0000    0.0000 C   0  0  0  0  0  0  0  0  0  0  0  0
   -0.7145   -0.4125    0.0000 F   0  0  0  0  0  0  0  0  0  0  0  0
    0.0000    0.8250    0.0000 C   0  0  0  0  0  0  0  0  0  0  0  0
    0.7145    1.2375    0.0000 C   0  0  0  0  0  0  0  0  0  0  0  0
    1.4289    0.8250    0.0000 C   0  0  0  0  0  0  0  0  0  0  0  0
    1.4289    0.0000    0.0000 C   0  0  0  0  0  0  0  0  0  0  0  0
    2.1434   -0.4125    0.0000 F   0  0  0  0  0  0  0  0  0  0  0  0
    3.5724   -3.7125    0.0000 C   0  0  0  0  0  0  0  0  0  0  0  0
    2.7474   -3.7125    0.0000 F   0  0  0  0  0  0  0  0  0  0  0  0
    4.3974   -3.7125    0.0000 F   0  0  0  0  0  0  0  0  0  0  0  0
    3.5724   -4.5375    0.0000 F   0  0  0  0  0  0  0  0  0  0  0  0
  1  2  1  0  0  0  0
  2  3  1  0  0  0  0
  3  4  1  0  0  0  0
  4  5  4  0  0  0  0
  5  6  4  0  0  0  0
  6  7  1  0  0  0  0
  7  8  4  0  0  0  0
  8  9  4  0  0  0  0
  9 10  1  0  0  0  0
 10 11  1  0  0  0  0
 11 12  1  0  0  0  0
  9 13  4  0  0  0  0
 13 14  1  0  0  0  0
 13 15  4  0  0  0  0
  7 15  4  0  0  0  0
 15 16  2  0  0  0  0
  6 17  4  0  0  0  0
 17 18  1  0  0  0  0
 17 19  4  0  0  0  0
 19 20  4  0  0  0  0
  4 20  4  0  0  0  0
 20 21  1  0  0  0  0
 21 22  2  0  0  0  0
 21 23  1  0  0  0  0
 23 24  1  0  0  0  0
 24 25  4  0  0  0  0
 25 26  1  0  0  0  0
 25 27  4  0  0  0  0
 27 28  4  0  0  0  0
 28 29  4  0  0  0  0
 29 30  4  0  0  0  0
 24 30  4  0  0  0  0
 30 31  1  0  0  0  0
  2 32  1  0  0  0  0
 32 33  1  0  0  0  0
 32 34  1  0  0  0  0
 32 35  1  0  0  0  0
M  END
> <IC50(uM)>
8.5

> <Outcome>
0.0

> <BindingDB ID>
972558; 1098712

> <BindingDB MonomerID>
470432

> <BindingDB Ligand Name>
4-[3-(2-aminoethyl)-4-methyl-5-oxo-4,5-dihydro-1H-1,2,4-triazol-1-yl]-N-(2,6-difluorophenyl)-5-fluoro-2-{[(2S)-1,1,1-trifluoropropan-2-yl]oxy}benzamide::US10815215, Example 100; 4-[3-(2-aminoethyl)-4-methyl-5-oxo-4,5-dihydro-1H-1,2,4-triazol-1-yl]-N-(2,6-difluorophenyl)-5-fluoro-2-{[(2S)-1,1,1-trifluoropropan-2-yl]oxy}benzamide::US10815215, Example 100::US11130745, Example 100

> <Curation/DataSource>
US Patent

> <Article DOI>
?

> <PMID>
?

> <Patent Number>
US10815215; US11130745

> <Authors>
Gradl, SN; Nguyen, D; Eis, K; Gunther, J; Stellfeld, T; Janzer, A; Christian, S; Muller, T; Sheikh, SE; Zhou, HJ; Zhao, C; Sykes, DB; Ferrara, SJ; Liu, K; Krober, M; Merz, C; Niehues, M; Schafer, M; Zimmermann, K; Nising, CF; Gradl, SN; Nguyen, D; Eis, K; Gunther, J; Stellfeld, T; Janzer, A; Christian, S; Muller, T; Sheikh, SE; Sykes, DB; Ferrara, SJ; Krober, M; Merz, C; Niehues, M; Schafer, M; Zimmermann, K; Nising, CF

> <Link to Ligand in BindingDB>
http://www.bindingdb.org/bind/chemsearch/marvin/MolStructure.jsp?monomerid=470432

> <Link to Ligand-Target Pair in BindingDB>
http://www.bindingdb.org/jsp/dbsearch/PrimarySearch_ki.jsp?energyterm=kJ/mole&tag=r21&monomerid=470432&enzyme=Dihydroorotate+dehydrogenase&column=ki&startPg=0&Increment=50&submit=Search

> <PubChem CID>
134470176

> <PubChem SID>
441609609

$$$$

  Mrv2115 07222212352D          

 31 33  0  0  0  0            999 V2000
   -3.8907    4.3876    0.0000 C   0  0  0  0  0  0  0  0  0  0  0  0
   -3.5551    5.1413    0.0000 C   0  0  0  0  0  0  0  0  0  0  0  0
   -2.7346    5.2275    0.0000 C   0  0  0  0  0  0  0  0  0  0  0  0
   -2.1826    4.6144    0.0000 N   0  0  0  0  0  0  0  0  0  0  0  0
   -1.4289    4.9500    0.0000 N   0  0  0  0  0  0  0  0  0  0  0  0
   -0.7145    4.5375    0.0000 C   0  0  0  0  0  0  0  0  0  0  0  0
    0.0000    4.9500    0.0000 C   0  0  0  0  0  0  0  0  0  0  0  0
    0.7145    4.5375    0.0000 C   0  0  0  0  0  0  0  0  0  0  0  0
    1.4289    4.9500    0.0000 O   0  0  0  0  0  0  0  0  0  0  0  0
    1.4289    5.7750    0.0000 C   0  0  0  0  0  0  0  0  0  0  0  0
    2.1434    6.1875    0.0000 C   0  0  0  0  0  0  0  0  0  0  0  0
    0.7145    6.1875    0.0000 C   0  0  0  0  0  0  0  0  0  0  0  0
    0.7145    7.0125    0.0000 C   0  0  0  0  0  0  0  0  0  0  0  0
    0.3020    7.7270    0.0000 C   0  0  0  0  0  0  0  0  0  0  0  0
    1.1270    7.7270    0.0000 C   0  0  0  0  0  0  0  0  0  0  0  0
    0.7145    3.7125    0.0000 C   0  0  0  0  0  0  0  0  0  0  0  0
    1.4289    3.3000    0.0000 C   0  0  0  0  0  0  0  0  0  0  0  0
    2.1434    3.7125    0.0000 O   0  0  0  0  0  0  0  0  0  0  0  0
    1.4289    2.4750    0.0000 N   0  0  0  0  0  0  0  0  0  0  0  0
    2.1434    2.0625    0.0000 C   0  0  0  0  0  0  0  0  0  0  0  0
    2.1434    1.2375    0.0000 C   0  0  0  0  0  0  0  0  0  0  0  0
    2.8579    0.8250    0.0000 C   0  0  0  0  0  0  0  0  0  0  0  0
    2.8579    2.4750    0.0000 C   0  0  0  0  0  0  0  0  0  0  0  0
    3.5724    2.0625    0.0000 C   0  0  0  0  0  0  0  0  0  0  0  0
    0.0000    3.3000    0.0000 C   0  0  0  0  0  0  0  0  0  0  0  0
   -0.7145    3.7125    0.0000 C   0  0  0  0  0  0  0  0  0  0  0  0
   -1.4289    3.3000    0.0000 F   0  0  0  0  0  0  0  0  0  0  0  0
   -1.5152    5.7705    0.0000 C   0  0  0  0  0  0  0  0  0  0  0  0
   -0.9021    6.3225    0.0000 O   0  0  0  0  0  0  0  0  0  0  0  0
   -2.3221    5.9420    0.0000 N   0  0  0  0  0  0  0  0  0  0  0  0
   -2.6577    6.6957    0.0000 C   0  0  0  0  0  0  0  0  0  0  0  0
  1  2  1  0  0  0  0
  2  3  1  0  0  0  0
  3  4  4  0  0  0  0
  4  5  4  0  0  0  0
  5  6  1  0  0  0  0
  6  7  4  0  0  0  0
  7  8  4  0  0  0  0
  8  9  1  0  0  0  0
  9 10  1  0  0  0  0
 10 11  1  0  0  0  0
 10 12  1  0  0  0  0
 12 13  1  0  0  0  0
 13 14  1  0  0  0  0
 14 15  1  0  0  0  0
 13 15  1  0  0  0  0
  8 16  4  0  0  0  0
 16 17  1  0  0  0  0
 17 18  2  0  0  0  0
 17 19  1  0  0  0  0
 19 20  1  0  0  0  0
 20 21  1  0  0  0  0
 21 22  1  0  0  0  0
 20 23  1  0  0  0  0
 23 24  1  0  0  0  0
 16 25  4  0  0  0  0
 25 26  4  0  0  0  0
  6 26  4  0  0  0  0
 26 27  1  0  0  0  0
  5 28  4  0  0  0  0
 28 29  2  0  0  0  0
 28 30  4  0  0  0  0
  3 30  4  0  0  0  0
 30 31  1  0  0  0  0
M  END
> <IC50(uM)>
0.22249999999999998

> <Outcome>
1.0

> <BindingDB ID>
972624; 1098778; 1098779; 972625

> <BindingDB MonomerID>
470508

> <BindingDB Ligand Name>
2-[(1-cyclopropylpropan-2-yl)oxy]-4-(3-ethyl-4-methyl-5-oxo-4,5-dihydro-1H-1,2,4-triazol-1-yl)-5-fluoro-N-(pentan-3-yl)benzamide, Mixture of Stereoisomers::US10815215, Example 166; 2-[(1-cyclopropylpropan-2-yl)oxy]-4-(3-ethyl-4-methyl-5-oxo-4,5-dihydro-1H-1,2,4-triazol-1-yl)-5-fluoro-N-(pentan-3-yl)benzamide, Mixture of Stereoisomers::US10815215, Example 166::US11130745, Example 166

> <Curation/DataSource>
US Patent

> <Article DOI>
?

> <PMID>
?

> <Patent Number>
US10815215; US11130745

> <Authors>
Gradl, SN; Nguyen, D; Eis, K; Gunther, J; Stellfeld, T; Janzer, A; Christian, S; Muller, T; Sheikh, SE; Zhou, HJ; Zhao, C; Sykes, DB; Ferrara, SJ; Liu, K; Krober, M; Merz, C; Niehues, M; Schafer, M; Zimmermann, K; Nising, CF; Gradl, SN; Nguyen, D; Eis, K; Gunther, J; Stellfeld, T; Janzer, A; Christian, S; Muller, T; Sheikh, SE; Sykes, DB; Ferrara, SJ; Krober, M; Merz, C; Niehues, M; Schafer, M; Zimmermann, K; Nising, CF

> <Link to Ligand in BindingDB>
http://www.bindingdb.org/bind/chemsearch/marvin/MolStructure.jsp?monomerid=470508

> <Link to Ligand-Target Pair in BindingDB>
http://www.bindingdb.org/jsp/dbsearch/PrimarySearch_ki.jsp?energyterm=kJ/mole&tag=r21&monomerid=470508&enzyme=Dihydroorotate+dehydrogenase&column=ki&startPg=0&Increment=50&submit=Search

> <PubChem CID>
134470411

> <PubChem SID>
441609685

$$$$

  Mrv2115 07222212352D          

 27 30  0  0  0  0            999 V2000
    0.0000   -1.6500    0.0000 C   0  0  0  0  0  0  0  0  0  0  0  0
    0.7145   -1.2375    0.0000 C   0  0  0  0  0  0  0  0  0  0  0  0
    0.7145   -0.4125    0.0000 C   0  0  0  0  0  0  0  0  0  0  0  0
    0.0000    0.0000    0.0000 C   0  0  0  0  0  0  0  0  0  0  0  0
   -0.7145   -0.4125    0.0000 C   0  0  0  0  0  0  0  0  0  0  0  0
   -1.4289    0.0000    0.0000 C   0  0  0  0  0  0  0  0  0  0  0  0
   -1.4289    0.8250    0.0000 C   0  0  0  0  0  0  0  0  0  0  0  0
   -2.1434    1.2375    0.0000 C   0  0  0  0  0  0  0  0  0  0  0  0
   -2.8579    0.8250    0.0000 C   0  0  0  0  0  0  0  0  0  0  0  0
   -3.5724    1.2375    0.0000 C   0  0  0  0  0  0  0  0  0  0  0  0
   -3.5724    2.0625    0.0000 C   0  0  0  0  0  0  0  0  0  0  0  0
   -2.8579    2.4750    0.0000 N   0  0  0  0  0  0  0  0  0  0  0  0
   -2.1434    2.0625    0.0000 C   0  0  0  0  0  0  0  0  0  0  0  0
   -1.4289    2.4750    0.0000 Cl  0  0  0  0  0  0  0  0  0  0  0  0
   -0.7145    1.2375    0.0000 C   0  0  0  0  0  0  0  0  0  0  0  0
    0.0000    0.8250    0.0000 C   0  0  0  0  0  0  0  0  0  0  0  0
    1.4289    0.0000    0.0000 N   0  0  0  0  0  0  0  0  0  0  0  0
    2.1434   -0.4125    0.0000 C   0  0  0  0  0  0  0  0  0  0  0  0
    2.8579    0.0000    0.0000 C   0  0  0  0  0  0  0  0  0  0  0  0
    3.5724   -0.4125    0.0000 C   0  0  0  0  0  0  0  0  0  0  0  0
    3.5724   -1.2375    0.0000 C   0  0  0  0  0  0  0  0  0  0  0  0
    2.8579   -1.6500    0.0000 C   0  0  0  0  0  0  0  0  0  0  0  0
    2.1434   -1.2375    0.0000 C   0  0  0  0  0  0  0  0  0  0  0  0
    1.4289   -1.6500    0.0000 C   0  0  0  0  0  0  0  0  0  0  0  0
    1.4289   -2.4750    0.0000 C   0  0  0  0  0  0  0  0  0  0  0  0
    0.7145   -2.8875    0.0000 O   0  0  0  0  0  0  0  0  0  0  0  0
    2.1434   -2.8875    0.0000 O   0  0  0  0  0  0  0  0  0  0  0  0
  1  2  1  0  0  0  0
  2  3  4  0  0  0  0
  3  4  1  0  0  0  0
  4  5  4  0  0  0  0
  5  6  4  0  0  0  0
  6  7  4  0  0  0  0
  7  8  1  0  0  0  0
  8  9  4  0  0  0  0
  9 10  4  0  0  0  0
 10 11  4  0  0  0  0
 11 12  4  0  0  0  0
 12 13  4  0  0  0  0
  8 13  4  0  0  0  0
 13 14  1  0  0  0  0
  7 15  4  0  0  0  0
 15 16  4  0  0  0  0
  4 16  4  0  0  0  0
  3 17  4  0  0  0  0
 17 18  4  0  0  0  0
 18 19  4  0  0  0  0
 19 20  4  0  0  0  0
 20 21  4  0  0  0  0
 21 22  4  0  0  0  0
 22 23  4  0  0  0  0
 18 23  4  0  0  0  0
 23 24  4  0  0  0  0
  2 24  4  0  0  0  0
 24 25  1  0  0  0  0
 25 26  2  0  0  0  0
 25 27  1  0  0  0  0
M  END
> <IC50(uM)>
0.054

> <Outcome>
1.0

> <BindingDB ID>
51126214

> <BindingDB MonomerID>
50461898

> <BindingDB Ligand Name>
CHEMBL4225759

> <Curation/DataSource>
ChEMBL

> <Article DOI>
10.1021/acs.jmedchem.7b01862

> <PMID>
29727569

> <Patent Number>
?

> <Authors>
Madak, JT; Cuthbertson, CR; Miyata, Y; Tamura, S; Petrunak, EM; Stuckey, JA; Han, Y; He, M; Sun, D; Showalter, HD; Neamati, N

> <Link to Ligand in BindingDB>
http://www.bindingdb.org/bind/chemsearch/marvin/MolStructure.jsp?monomerid=50461898

> <Link to Ligand-Target Pair in BindingDB>
http://www.bindingdb.org/jsp/dbsearch/PrimarySearch_ki.jsp?energyterm=kJ/mole&tag=r21&monomerid=50461898&enzyme=Dihydroorotate+dehydrogenase&column=ki&startPg=0&Increment=50&submit=Search

> <PubChem CID>
145967629

> <PubChem SID>
433929163

$$$$

  Mrv2115 07222212352D          

 32 35  0  0  0  0            999 V2000
    7.6391    6.8854    0.0000 C   0  0  0  0  0  0  0  0  0  0  0  0
    7.6391    6.0604    0.0000 N   0  0  0  0  0  0  0  0  0  0  0  0
    6.9246    5.6479    0.0000 C   0  0  0  0  0  0  0  0  0  0  0  0
    6.9246    4.8229    0.0000 C   0  0  0  0  0  0  0  0  0  0  0  0
    7.6391    4.4104    0.0000 C   0  0  0  0  0  0  0  0  0  0  0  0
    7.6391    3.5854    0.0000 C   0  0  0  0  0  0  0  0  0  0  0  0
    6.9246    3.1729    0.0000 C   0  0  0  0  0  0  0  0  0  0  0  0
    6.2102    3.5854    0.0000 C   0  0  0  0  0  0  0  0  0  0  0  0
    5.4957    3.1729    0.0000 C   0  0  0  0  0  0  0  0  0  0  0  0
    5.4957    2.3479    0.0000 C   0  0  0  0  0  0  0  0  0  0  0  0
    6.2102    1.9354    0.0000 F   0  0  0  0  0  0  0  0  0  0  0  0
    4.7812    1.9354    0.0000 C   0  0  0  0  0  0  0  0  0  0  0  0
    4.7812    1.1104    0.0000 F   0  0  0  0  0  0  0  0  0  0  0  0
    4.0668    2.3479    0.0000 C   0  0  0  0  0  0  0  0  0  0  0  0
    3.3523    1.9354    0.0000 C   0  0  0  0  0  0  0  0  0  0  0  0
    3.3523    1.1104    0.0000 C   0  0  0  0  0  0  0  0  0  0  0  0
    2.6378    0.6979    0.0000 C   0  0  0  0  0  0  0  0  0  0  0  0
    2.6378   -0.1271    0.0000 C   0  0  0  0  0  0  0  0  0  0  0  0
    1.9233   -0.5396    0.0000 O   0  0  0  0  0  0  0  0  0  0  0  0
    3.3523   -0.5396    0.0000 O   0  0  0  0  0  0  0  0  0  0  0  0
    1.9233    1.1104    0.0000 C   0  0  0  0  0  0  0  0  0  0  0  0
    1.9233    1.9354    0.0000 C   0  0  0  0  0  0  0  0  0  0  0  0
    2.6378    2.3479    0.0000 C   0  0  0  0  0  0  0  0  0  0  0  0
    1.1387    2.1904    0.0000 N   0  0  0  0  0  0  0  0  0  0  0  0
    0.6538    1.5229    0.0000 N   0  0  0  0  0  0  0  0  0  0  0  0
    1.1387    0.8555    0.0000 N   0  0  0  0  0  0  0  0  0  0  0  0
    0.8838    0.0709    0.0000 C   0  0  0  0  0  0  0  0  0  0  0  0
    4.0668    3.1729    0.0000 C   0  0  0  0  0  0  0  0  0  0  0  0
    3.3523    3.5854    0.0000 F   0  0  0  0  0  0  0  0  0  0  0  0
    4.7812    3.5854    0.0000 C   0  0  0  0  0  0  0  0  0  0  0  0
    4.7812    4.4104    0.0000 F   0  0  0  0  0  0  0  0  0  0  0  0
    6.2102    4.4104    0.0000 C   0  0  0  0  0  0  0  0  0  0  0  0
  1  2  1  0  0  0  0
  2  3  1  0  0  0  0
  3  4  1  0  0  0  0
  4  5  4  0  0  0  0
  5  6  4  0  0  0  0
  6  7  4  0  0  0  0
  7  8  4  0  0  0  0
  8  9  1  0  0  0  0
  9 10  4  0  0  0  0
 10 11  1  0  0  0  0
 10 12  4  0  0  0  0
 12 13  1  0  0  0  0
 12 14  4  0  0  0  0
 14 15  1  0  0  0  0
 15 16  4  0  0  0  0
 16 17  4  0  0  0  0
 17 18  1  0  0  0  0
 18 19  2  0  0  0  0
 18 20  1  0  0  0  0
 17 21  4  0  0  0  0
 21 22  4  0  0  0  0
 22 23  4  0  0  0  0
 15 23  4  0  0  0  0
 22 24  4  0  0  0  0
 24 25  4  0  0  0  0
 25 26  4  0  0  0  0
 21 26  4  0  0  0  0
 26 27  1  0  0  0  0
 14 28  4  0  0  0  0
 28 29  1  0  0  0  0
 28 30  4  0  0  0  0
  9 30  4  0  0  0  0
 30 31  1  0  0  0  0
  8 32  4  0  0  0  0
  4 32  4  0  0  0  0
M  END
> <IC50(uM)>
1.0

> <Outcome>
1.0

> <BindingDB ID>
1100186

> <BindingDB MonomerID>
520645

> <BindingDB Ligand Name>
1-methyl-5-(2,3,5,6-tetrafluoro-3'-((methylamino)methyl)-[1,1'-biphenyl]-4-yl)- 1H-benzo[d][1,2,3]triazole-7-carboxylic acid;::US11147801, Compound 37

> <Curation/DataSource>
US Patent

> <Article DOI>
?

> <PMID>
?

> <Patent Number>
US11147801

> <Authors>
Nellore, K; Hosahalli, S

> <Link to Ligand in BindingDB>
http://www.bindingdb.org/bind/chemsearch/marvin/MolStructure.jsp?monomerid=520645

> <Link to Ligand-Target Pair in BindingDB>
http://www.bindingdb.org/jsp/dbsearch/PrimarySearch_ki.jsp?energyterm=kJ/mole&tag=r21&monomerid=520645&enzyme=Dihydroorotate+dehydrogenase&column=ki&startPg=0&Increment=50&submit=Search

> <PubChem CID>
?

> <PubChem SID>
?

$$$$

  Mrv2115 07222212352D          

 20 21  0  0  0  0            999 V2000
    3.4656    1.1759    0.0000 C   0  0  0  0  0  0  0  0  0  0  0  0
    2.7512    0.7634    0.0000 C   0  0  0  0  0  0  0  0  0  0  0  0
    2.7512   -0.0616    0.0000 O   0  0  0  0  0  0  0  0  0  0  0  0
    2.0367   -0.4741    0.0000 C   0  0  0  0  0  0  0  0  0  0  0  0
    1.3222   -0.0616    0.0000 O   0  0  0  0  0  0  0  0  0  0  0  0
    2.0367   -1.2991    0.0000 C   0  0  0  0  0  0  0  0  0  0  0  0
    1.3693   -1.7840    0.0000 C   0  0  0  0  0  0  0  0  0  0  0  0
    0.5846   -1.5291    0.0000 O   0  0  0  0  0  0  0  0  0  0  0  0
    1.6242   -2.5687    0.0000 C   0  0  0  0  0  0  0  0  0  0  0  0
    2.4492   -2.5687    0.0000 S   0  0  0  0  0  0  0  0  0  0  0  0
    2.7041   -1.7840    0.0000 C   0  0  0  0  0  0  0  0  0  0  0  0
    3.4888   -1.5291    0.0000 N   0  0  0  0  0  0  0  0  0  0  0  0
    4.1019   -2.0811    0.0000 C   0  0  0  0  0  0  0  0  0  0  0  0
    4.8865   -1.8262    0.0000 C   0  0  0  0  0  0  0  0  0  0  0  0
    5.4996   -2.3782    0.0000 C   0  0  0  0  0  0  0  0  0  0  0  0
    5.3281   -3.1852    0.0000 C   0  0  0  0  0  0  0  0  0  0  0  0
    5.9411   -3.7372    0.0000 Br  0  0  0  0  0  0  0  0  0  0  0  0
    4.5434   -3.4401    0.0000 C   0  0  0  0  0  0  0  0  0  0  0  0
    3.9303   -2.8881    0.0000 C   0  0  0  0  0  0  0  0  0  0  0  0
    3.1457   -3.1430    0.0000 C   0  0  0  0  0  0  0  0  0  0  0  0
  1  2  1  0  0  0  0
  2  3  1  0  0  0  0
  3  4  1  0  0  0  0
  4  5  2  0  0  0  0
  4  6  1  0  0  0  0
  6  7  4  0  0  0  0
  7  8  1  0  0  0  0
  7  9  4  0  0  0  0
  9 10  4  0  0  0  0
 10 11  4  0  0  0  0
  6 11  4  0  0  0  0
 11 12  1  0  0  0  0
 12 13  1  0  0  0  0
 13 14  4  0  0  0  0
 14 15  4  0  0  0  0
 15 16  4  0  0  0  0
 16 17  1  0  0  0  0
 16 18  4  0  0  0  0
 18 19  4  0  0  0  0
 13 19  4  0  0  0  0
 19 20  1  0  0  0  0
M  END
> <IC50(uM)>
50.0

> <Outcome>
0.0

> <BindingDB ID>
51079173

> <BindingDB MonomerID>
50441281

> <BindingDB Ligand Name>
CHEMBL2431512

> <Curation/DataSource>
ChEMBL

> <Article DOI>
10.1021/jm400938g

> <PMID>
24073986

> <Patent Number>
?

> <Authors>
Xu, M; Zhu, J; Diao, Y; Zhou, H; Ren, X; Sun, D; Huang, J; Han, D; Zhao, Z; Zhu, L; Xu, Y; Li, H

> <Link to Ligand in BindingDB>
http://www.bindingdb.org/bind/chemsearch/marvin/MolStructure.jsp?monomerid=50441281

> <Link to Ligand-Target Pair in BindingDB>
http://www.bindingdb.org/jsp/dbsearch/PrimarySearch_ki.jsp?energyterm=kJ/mole&tag=r21&monomerid=50441281&enzyme=Dihydroorotate+dehydrogenase&column=ki&startPg=0&Increment=50&submit=Search

> <PubChem CID>
91898842

> <PubChem SID>
175453598

$$$$

  Mrv2115 07222212352D          

 22 23  0  0  0  0            999 V2000
    0.7145   -1.2375    0.0000 N   0  0  0  0  0  0  0  0  0  0  0  0
    1.4289   -1.6500    0.0000 C   0  0  0  0  0  0  0  0  0  0  0  0
    2.1434   -1.2375    0.0000 O   0  0  0  0  0  0  0  0  0  0  0  0
    1.4289   -2.4750    0.0000 C   0  0  0  0  0  0  0  0  0  0  0  0
    2.1434   -2.8875    0.0000 C   0  0  0  0  0  0  0  0  0  0  0  0
    2.1434   -3.7125    0.0000 C   0  0  0  0  0  0  0  0  0  0  0  0
    1.4289   -4.1250    0.0000 C   0  0  0  0  0  0  0  0  0  0  0  0
    1.4289   -4.9500    0.0000 C   0  0  0  0  0  0  0  0  0  0  0  0
    2.1434   -5.3625    0.0000 C   0  0  0  0  0  0  0  0  0  0  0  0
    2.1434   -6.1875    0.0000 C   0  0  0  0  0  0  0  0  0  0  0  0
    2.8579   -6.6000    0.0000 C   0  0  0  0  0  0  0  0  0  0  0  0
    3.5724   -6.1875    0.0000 C   0  0  0  0  0  0  0  0  0  0  0  0
    4.2868   -6.6000    0.0000 O   0  0  0  0  0  0  0  0  0  0  0  0
    3.5724   -5.3625    0.0000 O   0  0  0  0  0  0  0  0  0  0  0  0
    2.8579   -7.4250    0.0000 N   0  0  0  0  0  0  0  0  0  0  0  0
    2.1434   -7.8375    0.0000 C   0  0  0  0  0  0  0  0  0  0  0  0
    2.1434   -8.6625    0.0000 O   0  0  0  0  0  0  0  0  0  0  0  0
    1.4289   -7.4250    0.0000 N   0  0  0  0  0  0  0  0  0  0  0  0
    1.4289   -6.6000    0.0000 C   0  0  0  0  0  0  0  0  0  0  0  0
    0.7145   -6.1875    0.0000 O   0  0  0  0  0  0  0  0  0  0  0  0
    0.7145   -3.7125    0.0000 C   0  0  0  0  0  0  0  0  0  0  0  0
    0.7145   -2.8875    0.0000 C   0  0  0  0  0  0  0  0  0  0  0  0
  1  2  1  0  0  0  0
  2  3  2  0  0  0  0
  2  4  1  0  0  0  0
  4  5  4  0  0  0  0
  5  6  4  0  0  0  0
  6  7  4  0  0  0  0
  7  8  1  0  0  0  0
  8  9  1  0  0  0  0
  9 10  1  0  0  0  0
 10 11  4  0  0  0  0
 11 12  1  0  0  0  0
 12 13  2  0  0  0  0
 12 14  1  0  0  0  0
 11 15  4  0  0  0  0
 15 16  4  0  0  0  0
 16 17  2  0  0  0  0
 16 18  4  0  0  0  0
 18 19  4  0  0  0  0
 10 19  4  0  0  0  0
 19 20  2  0  0  0  0
  7 21  4  0  0  0  0
 21 22  4  0  0  0  0
  4 22  4  0  0  0  0
M  STY  2   1 DAT   2 DAT
M  SAL   1  1  15
M  SDT   1 MRV_IMPLICIT_H                                        
M  SDD   1     0.5304   -0.4125    DR    ALL  0       0  
M  SED   1 IMPL_H1
M  SAL   2  1  18
M  SDT   2 MRV_IMPLICIT_H                                        
M  SDD   2     0.5304   -0.4125    DR    ALL  0       0  
M  SED   2 IMPL_H1
M  END
> <IC50(uM)>
1.0

> <Outcome>
1.0

> <BindingDB ID>
50555403

> <BindingDB MonomerID>
50211704

> <BindingDB Ligand Name>
CHEMBL3967690

> <Curation/DataSource>
ChEMBL

> <Article DOI>
10.1016/j.bmc.2017.01.009

> <PMID>
28118956

> <Patent Number>
?

> <Authors>
Inaoka, DK; Iida, M; Hashimoto, S; Tabuchi, T; Kuranaga, T; Balogun, EO; Honma, T; Tanaka, A; Harada, S; Nara, T; Kita, K; Inoue, M

> <Link to Ligand in BindingDB>
http://www.bindingdb.org/bind/chemsearch/marvin/MolStructure.jsp?monomerid=50211704

> <Link to Ligand-Target Pair in BindingDB>
http://www.bindingdb.org/jsp/dbsearch/PrimarySearch_ki.jsp?energyterm=kJ/mole&tag=r21&monomerid=50211704&enzyme=Dihydroorotate+dehydrogenase&column=ki&startPg=0&Increment=50&submit=Search

> <PubChem CID>
134150022

> <PubChem SID>
375983047

$$$$

  Mrv2115 07222212352D          

 40 44  0  0  0  0            999 V2000
   -1.8659    1.4455    0.0000 C   0  0  0  0  0  0  0  0  0  0  0  0
   -2.6909    1.4455    0.0000 C   0  0  0  0  0  0  0  0  0  0  0  0
   -3.1034    0.7310    0.0000 O   0  0  0  0  0  0  0  0  0  0  0  0
   -2.6909    0.0165    0.0000 C   0  0  0  0  0  0  0  0  0  0  0  0
   -1.8659    0.0165    0.0000 C   0  0  0  0  0  0  0  0  0  0  0  0
   -1.4534   -0.6979    0.0000 C   0  0  0  0  0  0  0  0  0  0  0  0
   -0.6284   -0.6979    0.0000 N   0  0  0  0  0  0  0  0  0  0  0  0
   -0.1435   -1.3654    0.0000 N   0  0  0  0  0  0  0  0  0  0  0  0
    0.6411   -1.1104    0.0000 C   0  0  0  0  0  0  0  0  0  0  0  0
    0.6411   -0.2854    0.0000 N   0  0  0  0  0  0  0  0  0  0  0  0
   -0.1435   -0.0305    0.0000 C   0  0  0  0  0  0  0  0  0  0  0  0
   -0.3984    0.7541    0.0000 O   0  0  0  0  0  0  0  0  0  0  0  0
    1.3556    0.1271    0.0000 C   0  0  0  0  0  0  0  0  0  0  0  0
    2.0701   -0.2854    0.0000 C   0  0  0  0  0  0  0  0  0  0  0  0
    2.0701   -1.1104    0.0000 C   0  0  0  0  0  0  0  0  0  0  0  0
    1.3556   -1.5229    0.0000 C   0  0  0  0  0  0  0  0  0  0  0  0
   -1.8659   -1.4124    0.0000 C   0  0  0  0  0  0  0  0  0  0  0  0
   -1.4534   -2.1269    0.0000 F   0  0  0  0  0  0  0  0  0  0  0  0
   -2.6909   -1.4124    0.0000 C   0  0  0  0  0  0  0  0  0  0  0  0
   -3.1034   -0.6979    0.0000 C   0  0  0  0  0  0  0  0  0  0  0  0
   -3.9284   -0.6979    0.0000 C   0  0  0  0  0  0  0  0  0  0  0  0
   -4.3409    0.0165    0.0000 O   0  0  0  0  0  0  0  0  0  0  0  0
   -4.3409   -1.4124    0.0000 N   0  0  0  0  0  0  0  0  0  0  0  0
   -3.9284   -2.1269    0.0000 C   0  0  0  0  0  0  0  0  0  0  0  0
   -3.1034   -2.1269    0.0000 C   0  0  0  0  0  0  0  0  0  0  0  0
   -2.6909   -2.8414    0.0000 C   0  0  0  0  0  0  0  0  0  0  0  0
   -3.1034   -3.5558    0.0000 C   0  0  0  0  0  0  0  0  0  0  0  0
   -2.6909   -4.2703    0.0000 N   0  0  0  0  0  0  0  0  0  0  0  0
   -3.9284   -3.5558    0.0000 C   0  0  0  0  0  0  0  0  0  0  0  0
   -4.3409   -2.8414    0.0000 C   0  0  0  0  0  0  0  0  0  0  0  0
   -5.1659   -2.8414    0.0000 C   0  0  0  0  0  0  0  0  0  0  0  0
   -5.9909   -2.8414    0.0000 F   0  0  0  0  0  0  0  0  0  0  0  0
   -5.1659   -2.0164    0.0000 F   0  0  0  0  0  0  0  0  0  0  0  0
   -5.1659   -3.6664    0.0000 F   0  0  0  0  0  0  0  0  0  0  0  0
   -3.1034    2.1599    0.0000 C   0  0  0  0  0  0  0  0  0  0  0  0
   -3.9284    2.1599    0.0000 C   0  0  0  0  0  0  0  0  0  0  0  0
   -4.3409    2.8744    0.0000 C   0  0  0  0  0  0  0  0  0  0  0  0
   -3.9284    3.5889    0.0000 C   0  0  0  0  0  0  0  0  0  0  0  0
   -3.1034    3.5889    0.0000 C   0  0  0  0  0  0  0  0  0  0  0  0
   -2.6909    2.8744    0.0000 C   0  0  0  0  0  0  0  0  0  0  0  0
  1  2  1  0  0  0  0
  2  3  1  0  0  0  0
  3  4  1  0  0  0  0
  4  5  4  0  0  0  0
  5  6  4  0  0  0  0
  6  7  1  0  0  0  0
  7  8  4  0  0  0  0
  8  9  4  0  0  0  0
  9 10  4  0  0  0  0
 10 11  4  0  0  0  0
  7 11  4  0  0  0  0
 11 12  2  0  0  0  0
 10 13  1  0  0  0  0
 13 14  1  0  0  0  0
 14 15  1  0  0  0  0
 15 16  1  0  0  0  0
  9 16  1  0  0  0  0
  6 17  4  0  0  0  0
 17 18  1  0  0  0  0
 17 19  4  0  0  0  0
 19 20  4  0  0  0  0
  4 20  4  0  0  0  0
 20 21  1  0  0  0  0
 21 22  2  0  0  0  0
 21 23  1  0  0  0  0
 23 24  1  0  0  0  0
 24 25  4  0  0  0  0
 25 26  4  0  0  0  0
 26 27  4  0  0  0  0
 27 28  1  0  0  0  0
 27 29  4  0  0  0  0
 29 30  4  0  0  0  0
 24 30  4  0  0  0  0
 30 31  1  0  0  0  0
 31 32  1  0  0  0  0
 31 33  1  0  0  0  0
 31 34  1  0  0  0  0
  2 35  1  0  0  0  0
 35 36  1  0  0  0  0
 36 37  1  0  0  0  0
 37 38  1  0  0  0  0
 38 39  1  0  0  0  0
 39 40  1  0  0  0  0
 35 40  1  0  0  0  0
M  END
> <IC50(uM)>
0.046

> <Outcome>
1.0

> <BindingDB ID>
1020525; 1020524

> <BindingDB MonomerID>
490472

> <BindingDB Ligand Name>
N-[4-amino-2-(trifluoromethyl)phenyl]-2-[(1S)-1-cyclohexylethoxy]-5-fluoro-4-(3-oxo-5,6,7,8 tetrahydro[1,2,4]triazolo[4,3-a]pyridin-2(3H)-yl)benzamide::US10968216, Example 140

> <Curation/DataSource>
US Patent

> <Article DOI>
?

> <PMID>
?

> <Patent Number>
US10968216

> <Authors>
Gradl, SN; Nguyen, D; Eis, K; Gunther, J; Stellfeld, T; Janzer, A; Christian, S; Mueller, T; Sheikh, SE; Zhou, HJ; Zhao, C; Sykes, DB; Ferrara, SJ; Liu, K; Herbert, SA; Merz, C; Niehues, M; Nising, CF; Schafer, M; Zimmermann, K; Knablein, J; Thede, K; Faupel, T

> <Link to Ligand in BindingDB>
http://www.bindingdb.org/bind/chemsearch/marvin/MolStructure.jsp?monomerid=490472

> <Link to Ligand-Target Pair in BindingDB>
http://www.bindingdb.org/jsp/dbsearch/PrimarySearch_ki.jsp?energyterm=kJ/mole&tag=r21&monomerid=490472&enzyme=Dihydroorotate+dehydrogenase&column=ki&startPg=0&Increment=50&submit=Search

> <PubChem CID>
134474125

> <PubChem SID>
447117199

$$$$

  Mrv2115 07222212352D          

 22 23  0  0  0  0            999 V2000
   -0.1067   -0.0616    0.0000 C   0  0  0  0  0  0  0  0  0  0  0  0
    0.6078   -0.4741    0.0000 C   0  0  0  0  0  0  0  0  0  0  0  0
    1.3222   -0.0616    0.0000 O   0  0  0  0  0  0  0  0  0  0  0  0
    2.0367   -0.4741    0.0000 C   0  0  0  0  0  0  0  0  0  0  0  0
    2.7512   -0.0616    0.0000 O   0  0  0  0  0  0  0  0  0  0  0  0
    2.0367   -1.2991    0.0000 C   0  0  0  0  0  0  0  0  0  0  0  0
    1.3693   -1.7840    0.0000 C   0  0  0  0  0  0  0  0  0  0  0  0
    0.5846   -1.5291    0.0000 O   0  0  0  0  0  0  0  0  0  0  0  0
    1.6242   -2.5687    0.0000 C   0  0  0  0  0  0  0  0  0  0  0  0
    2.4492   -2.5687    0.0000 S   0  0  0  0  0  0  0  0  0  0  0  0
    2.7041   -1.7840    0.0000 C   0  0  0  0  0  0  0  0  0  0  0  0
    3.4888   -1.5291    0.0000 N   0  0  0  0  0  0  0  0  0  0  0  0
    4.1019   -2.0811    0.0000 C   0  0  0  0  0  0  0  0  0  0  0  0
    4.8865   -1.8262    0.0000 C   0  0  0  0  0  0  0  0  0  0  0  0
    5.4996   -2.3782    0.0000 C   0  0  0  0  0  0  0  0  0  0  0  0
    5.3281   -3.1852    0.0000 C   0  0  0  0  0  0  0  0  0  0  0  0
    5.9411   -3.7372    0.0000 C   0  0  0  0  0  0  0  0  0  0  0  0
    6.5542   -4.2893    0.0000 F   0  0  0  0  0  0  0  0  0  0  0  0
    5.3891   -4.3503    0.0000 F   0  0  0  0  0  0  0  0  0  0  0  0
    6.4932   -3.1241    0.0000 F   0  0  0  0  0  0  0  0  0  0  0  0
    4.5434   -3.4401    0.0000 C   0  0  0  0  0  0  0  0  0  0  0  0
    3.9303   -2.8881    0.0000 C   0  0  0  0  0  0  0  0  0  0  0  0
  1  2  1  0  0  0  0
  2  3  1  0  0  0  0
  3  4  1  0  0  0  0
  4  5  2  0  0  0  0
  4  6  1  0  0  0  0
  6  7  4  0  0  0  0
  7  8  1  0  0  0  0
  7  9  4  0  0  0  0
  9 10  4  0  0  0  0
 10 11  4  0  0  0  0
  6 11  4  0  0  0  0
 11 12  1  0  0  0  0
 12 13  1  0  0  0  0
 13 14  4  0  0  0  0
 14 15  4  0  0  0  0
 15 16  4  0  0  0  0
 16 17  1  0  0  0  0
 17 18  1  0  0  0  0
 17 19  1  0  0  0  0
 17 20  1  0  0  0  0
 16 21  4  0  0  0  0
 21 22  4  0  0  0  0
 13 22  4  0  0  0  0
M  END
> <IC50(uM)>
50.0

> <Outcome>
0.0

> <BindingDB ID>
51079182

> <BindingDB MonomerID>
50441290

> <BindingDB Ligand Name>
CHEMBL2431503

> <Curation/DataSource>
ChEMBL

> <Article DOI>
10.1021/jm400938g

> <PMID>
24073986

> <Patent Number>
?

> <Authors>
Xu, M; Zhu, J; Diao, Y; Zhou, H; Ren, X; Sun, D; Huang, J; Han, D; Zhao, Z; Zhu, L; Xu, Y; Li, H

> <Link to Ligand in BindingDB>
http://www.bindingdb.org/bind/chemsearch/marvin/MolStructure.jsp?monomerid=50441290

> <Link to Ligand-Target Pair in BindingDB>
http://www.bindingdb.org/jsp/dbsearch/PrimarySearch_ki.jsp?energyterm=kJ/mole&tag=r21&monomerid=50441290&enzyme=Dihydroorotate+dehydrogenase&column=ki&startPg=0&Increment=50&submit=Search

> <PubChem CID>
91898851

> <PubChem SID>
175453607

$$$$

  Mrv2115 07222212352D          

 20 20  0  0  0  0            999 V2000
    2.5878   -3.3454    0.0000 C   0  0  0  0  0  0  0  0  0  0  0  0
    2.8579   -4.1250    0.0000 C   0  0  0  0  0  0  0  0  0  0  0  0
    3.6680   -4.2809    0.0000 O   0  0  0  0  0  0  0  0  0  0  0  0
    3.9381   -5.0605    0.0000 C   0  0  0  0  0  0  0  0  0  0  0  0
    3.3980   -5.6841    0.0000 O   0  0  0  0  0  0  0  0  0  0  0  0
    4.7482   -5.2164    0.0000 C   0  0  0  0  0  0  0  0  0  0  0  0
    5.0182   -5.9959    0.0000 C   0  0  0  0  0  0  0  0  0  0  0  0
    5.8284   -6.1518    0.0000 N   0  0  0  0  0  0  0  0  0  0  0  0
    6.0984   -6.9314    0.0000 C   0  0  0  0  0  0  0  0  0  0  0  0
    6.9086   -7.0873    0.0000 C   0  0  0  0  0  0  0  0  0  0  0  0
    7.1786   -7.8668    0.0000 C   0  0  0  0  0  0  0  0  0  0  0  0
    6.6385   -8.4905    0.0000 C   0  0  0  0  0  0  0  0  0  0  0  0
    6.9086   -9.2700    0.0000 C   0  0  0  0  0  0  0  0  0  0  0  0
    5.8284   -8.3346    0.0000 C   0  0  0  0  0  0  0  0  0  0  0  0
    5.5583   -7.5550    0.0000 C   0  0  0  0  0  0  0  0  0  0  0  0
    5.2883   -4.5927    0.0000 C   0  0  0  0  0  0  0  0  0  0  0  0
    5.0182   -3.8132    0.0000 O   0  0  0  0  0  0  0  0  0  0  0  0
    6.0984   -4.7486    0.0000 O   0  0  0  0  0  0  0  0  0  0  0  0
    6.6385   -4.1250    0.0000 C   0  0  0  0  0  0  0  0  0  0  0  0
    7.4486   -4.2809    0.0000 C   0  0  0  0  0  0  0  0  0  0  0  0
  1  2  1  0  0  0  0
  2  3  1  0  0  0  0
  3  4  1  0  0  0  0
  4  5  2  0  0  0  0
  4  6  1  0  0  0  0
  7  6  1  4  0  0  0
  7  8  2  0  0  0  0
  8  9  1  0  0  0  0
  9 10  4  0  0  0  0
 10 11  4  0  0  0  0
 11 12  4  0  0  0  0
 12 13  1  0  0  0  0
 12 14  4  0  0  0  0
 14 15  4  0  0  0  0
  9 15  4  0  0  0  0
  6 16  1  0  0  0  0
 16 17  2  0  0  0  0
 16 18  1  0  0  0  0
 18 19  1  0  0  0  0
 19 20  1  0  0  0  0
M  END
> <IC50(uM)>
145.7

> <Outcome>
0.0

> <BindingDB ID>
26831

> <BindingDB MonomerID>
14703

> <BindingDB Ligand Name>
1,3-diethyl 2-{[(4-methylphenyl)amino]methylidene}propanedioate::2-(p-Tolylamino-methylene)-malonic acid diethyl ester::monocyclic compound 8

> <Curation/DataSource>
Curated from the literature by BindingDB

> <Article DOI>
10.1021/jm060687j

> <PMID>
17228860

> <Patent Number>
?

> <Authors>
Heikkila, T; Ramsey, C; Davies, M; Galtier, C; Stead, AM; Johnson, AP; Fishwick, CW; Boa, AN; McConkey, GA

> <Link to Ligand in BindingDB>
http://www.bindingdb.org/bind/chemsearch/marvin/MolStructure.jsp?monomerid=14703

> <Link to Ligand-Target Pair in BindingDB>
http://www.bindingdb.org/jsp/dbsearch/PrimarySearch_ki.jsp?energyterm=kJ/mole&tag=r21&monomerid=14703&enzyme=Dihydroorotate+dehydrogenase&column=ki&startPg=0&Increment=50&submit=Search

> <PubChem CID>
54330734

> <PubChem SID>
46515033

$$$$

  Mrv2115 07222212352D          

 38 42  0  0  0  0            999 V2000
   -5.5784   -3.5558    0.0000 C   0  0  0  0  0  0  0  0  0  0  0  0
   -5.1659   -2.8414    0.0000 O   0  0  0  0  0  0  0  0  0  0  0  0
   -5.5784   -2.1269    0.0000 C   0  0  0  0  0  0  0  0  0  0  0  0
   -6.4034   -2.1269    0.0000 N   0  0  0  0  0  0  0  0  0  0  0  0
   -6.8159   -1.4124    0.0000 C   0  0  0  0  0  0  0  0  0  0  0  0
   -6.4034   -0.6979    0.0000 C   0  0  0  0  0  0  0  0  0  0  0  0
   -5.5784   -0.6979    0.0000 C   0  0  0  0  0  0  0  0  0  0  0  0
   -5.1659    0.0165    0.0000 C   0  0  0  0  0  0  0  0  0  0  0  0
   -5.1659   -1.4124    0.0000 C   0  0  0  0  0  0  0  0  0  0  0  0
   -4.3409   -1.4124    0.0000 N   0  0  0  0  0  0  0  0  0  0  0  0
   -3.9284   -0.6979    0.0000 C   0  0  0  0  0  0  0  0  0  0  0  0
   -4.3409    0.0165    0.0000 O   0  0  0  0  0  0  0  0  0  0  0  0
   -3.1034   -0.6979    0.0000 C   0  0  0  0  0  0  0  0  0  0  0  0
   -2.6909    0.0165    0.0000 C   0  0  0  0  0  0  0  0  0  0  0  0
   -1.8659    0.0165    0.0000 C   0  0  0  0  0  0  0  0  0  0  0  0
   -1.4534    0.7310    0.0000 F   0  0  0  0  0  0  0  0  0  0  0  0
   -1.4534   -0.6979    0.0000 C   0  0  0  0  0  0  0  0  0  0  0  0
   -0.6284   -0.6979    0.0000 N   0  0  0  0  0  0  0  0  0  0  0  0
   -0.1435   -1.3654    0.0000 N   0  0  0  0  0  0  0  0  0  0  0  0
    0.6411   -1.1104    0.0000 C   0  0  0  0  0  0  0  0  0  0  0  0
    0.6411   -0.2854    0.0000 N   0  0  0  0  0  0  0  0  0  0  0  0
   -0.1435   -0.0305    0.0000 C   0  0  0  0  0  0  0  0  0  0  0  0
   -0.3984    0.7541    0.0000 O   0  0  0  0  0  0  0  0  0  0  0  0
    1.3556    0.1271    0.0000 C   0  0  0  0  0  0  0  0  0  0  0  0
    2.0701   -0.2854    0.0000 C   0  0  0  0  0  0  0  0  0  0  0  0
    2.0701   -1.1104    0.0000 C   0  0  0  0  0  0  0  0  0  0  0  0
    1.3556   -1.5229    0.0000 C   0  0  0  0  0  0  0  0  0  0  0  0
   -1.8659   -1.4124    0.0000 C   0  0  0  0  0  0  0  0  0  0  0  0
   -2.6909   -1.4124    0.0000 C   0  0  0  0  0  0  0  0  0  0  0  0
   -3.1034   -2.1269    0.0000 O   0  0  0  0  0  0  0  0  0  0  0  0
   -2.6909   -2.8414    0.0000 C   0  0  0  0  0  0  0  0  0  0  0  0
   -1.8659   -2.8414    0.0000 C   0  0  0  0  0  0  0  0  0  0  0  0
   -3.1034   -3.5558    0.0000 C   0  0  0  0  0  0  0  0  0  0  0  0
   -2.6909   -4.2703    0.0000 C   0  0  0  0  0  0  0  0  0  0  0  0
   -3.1034   -4.9848    0.0000 C   0  0  0  0  0  0  0  0  0  0  0  0
   -3.9284   -4.9848    0.0000 C   0  0  0  0  0  0  0  0  0  0  0  0
   -4.3409   -4.2703    0.0000 C   0  0  0  0  0  0  0  0  0  0  0  0
   -3.9284   -3.5558    0.0000 C   0  0  0  0  0  0  0  0  0  0  0  0
  1  2  1  0  0  0  0
  2  3  1  0  0  0  0
  3  4  4  0  0  0  0
  4  5  4  0  0  0  0
  5  6  4  0  0  0  0
  6  7  4  0  0  0  0
  7  8  1  0  0  0  0
  7  9  4  0  0  0  0
  3  9  4  0  0  0  0
  9 10  1  0  0  0  0
 10 11  1  0  0  0  0
 11 12  2  0  0  0  0
 11 13  1  0  0  0  0
 13 14  4  0  0  0  0
 14 15  4  0  0  0  0
 15 16  1  0  0  0  0
 15 17  4  0  0  0  0
 17 18  1  0  0  0  0
 18 19  4  0  0  0  0
 19 20  4  0  0  0  0
 20 21  4  0  0  0  0
 21 22  4  0  0  0  0
 18 22  4  0  0  0  0
 22 23  2  0  0  0  0
 21 24  1  0  0  0  0
 24 25  1  0  0  0  0
 25 26  1  0  0  0  0
 26 27  1  0  0  0  0
 20 27  1  0  0  0  0
 17 28  4  0  0  0  0
 28 29  4  0  0  0  0
 13 29  4  0  0  0  0
 29 30  1  0  0  0  0
 30 31  1  0  0  0  0
 31 32  1  0  0  0  0
 31 33  1  0  0  0  0
 33 34  1  0  0  0  0
 34 35  1  0  0  0  0
 35 36  1  0  0  0  0
 36 37  1  0  0  0  0
 37 38  1  0  0  0  0
 33 38  1  0  0  0  0
M  END
> <IC50(uM)>
0.0024999999999999996

> <Outcome>
1.0

> <BindingDB ID>
1020502

> <BindingDB MonomerID>
490450

> <BindingDB Ligand Name>
2-[(1S)-1-cyclohexylethoxy]-5-fluoro-N-(2-methoxy-4-methylpyridin-3-yl)-4-(3-oxo-5,6,7,8-tetrahydro[1,2,4]triazolo[4,3-a]pyridin-2(3H)-yl)benzamide::US10968216, Example 118

> <Curation/DataSource>
US Patent

> <Article DOI>
?

> <PMID>
?

> <Patent Number>
US10968216

> <Authors>
Gradl, SN; Nguyen, D; Eis, K; Gunther, J; Stellfeld, T; Janzer, A; Christian, S; Mueller, T; Sheikh, SE; Zhou, HJ; Zhao, C; Sykes, DB; Ferrara, SJ; Liu, K; Herbert, SA; Merz, C; Niehues, M; Nising, CF; Schafer, M; Zimmermann, K; Knablein, J; Thede, K; Faupel, T

> <Link to Ligand in BindingDB>
http://www.bindingdb.org/bind/chemsearch/marvin/MolStructure.jsp?monomerid=490450

> <Link to Ligand-Target Pair in BindingDB>
http://www.bindingdb.org/jsp/dbsearch/PrimarySearch_ki.jsp?energyterm=kJ/mole&tag=r21&monomerid=490450&enzyme=Dihydroorotate+dehydrogenase&column=ki&startPg=0&Increment=50&submit=Search

> <PubChem CID>
134474370

> <PubChem SID>
447117177

$$$$

  Mrv2115 07222212352D          

 27 29  0  0  0  0            999 V2000
   -2.1434   -1.2375    0.0000 C   0  0  0  0  0  0  0  0  0  0  0  0
   -2.8579   -1.6500    0.0000 O   0  0  0  0  0  0  0  0  0  0  0  0
   -2.8579   -2.4750    0.0000 C   0  0  0  0  0  0  0  0  0  0  0  0
   -2.1434   -2.8875    0.0000 C   0  0  0  0  0  0  0  0  0  0  0  0
   -2.1434   -3.7125    0.0000 C   0  0  0  0  0  0  0  0  0  0  0  0
   -2.8579   -4.1250    0.0000 C   0  0  0  0  0  0  0  0  0  0  0  0
   -3.5724   -3.7125    0.0000 C   0  0  0  0  0  0  0  0  0  0  0  0
   -4.2868   -4.1250    0.0000 C   0  0  0  0  0  0  0  0  0  0  0  0
   -4.2868   -4.9500    0.0000 C   0  0  0  0  0  0  0  0  0  0  0  0
   -5.0013   -5.3625    0.0000 C   0  0  0  0  0  0  0  0  0  0  0  0
   -5.0013   -6.1875    0.0000 F   0  0  0  0  0  0  0  0  0  0  0  0
   -5.7158   -4.9500    0.0000 C   0  0  0  0  0  0  0  0  0  0  0  0
   -6.4302   -5.3625    0.0000 N   0  0  0  0  0  0  0  0  0  0  0  0
   -6.4302   -6.1875    0.0000 C   0  0  0  0  0  0  0  0  0  0  0  0
   -5.7158   -6.6000    0.0000 N   0  0  0  0  0  0  0  0  0  0  0  0
   -5.7158   -7.4250    0.0000 C   0  0  0  0  0  0  0  0  0  0  0  0
   -6.4302   -7.8375    0.0000 C   0  0  0  0  0  0  0  0  0  0  0  0
   -6.4302   -8.6625    0.0000 C   0  0  0  0  0  0  0  0  0  0  0  0
   -7.1447   -7.4250    0.0000 C   0  0  0  0  0  0  0  0  0  0  0  0
   -7.1447   -6.6000    0.0000 C   0  0  0  0  0  0  0  0  0  0  0  0
   -7.8592   -6.1875    0.0000 C   0  0  0  0  0  0  0  0  0  0  0  0
   -7.8592   -5.3625    0.0000 O   0  0  0  0  0  0  0  0  0  0  0  0
   -8.5737   -6.6000    0.0000 O   0  0  0  0  0  0  0  0  0  0  0  0
   -5.7158   -4.1250    0.0000 C   0  0  0  0  0  0  0  0  0  0  0  0
   -6.4302   -3.7125    0.0000 F   0  0  0  0  0  0  0  0  0  0  0  0
   -5.0013   -3.7125    0.0000 C   0  0  0  0  0  0  0  0  0  0  0  0
   -3.5724   -2.8875    0.0000 C   0  0  0  0  0  0  0  0  0  0  0  0
  1  2  1  0  0  0  0
  2  3  1  0  0  0  0
  3  4  4  0  0  0  0
  4  5  4  0  0  0  0
  5  6  4  0  0  0  0
  6  7  4  0  0  0  0
  7  8  1  0  0  0  0
  8  9  4  0  0  0  0
  9 10  4  0  0  0  0
 10 11  1  0  0  0  0
 10 12  4  0  0  0  0
 12 13  1  0  0  0  0
 13 14  1  0  0  0  0
 14 15  4  0  0  0  0
 15 16  4  0  0  0  0
 16 17  4  0  0  0  0
 17 18  1  0  0  0  0
 17 19  4  0  0  0  0
 19 20  4  0  0  0  0
 14 20  4  0  0  0  0
 20 21  1  0  0  0  0
 21 22  2  0  0  0  0
 21 23  1  0  0  0  0
 12 24  4  0  0  0  0
 24 25  1  0  0  0  0
 24 26  4  0  0  0  0
  8 26  4  0  0  0  0
  7 27  4  0  0  0  0
  3 27  4  0  0  0  0
M  END
> <IC50(uM)>
0.012

> <Outcome>
1.0

> <BindingDB ID>
51186852; 246911

> <BindingDB MonomerID>
119818

> <BindingDB Ligand Name>
US8691852, 35

> <Curation/DataSource>
ChEMBL; US Patent

> <Article DOI>
10.1007/s00044-011-9837-4; ?

> <PMID>
?

> <Patent Number>
?; US8691852

> <Authors>
n/a; Castro Palomino Laria, JC; Erra Sola, M; Lozoya Toribio, ME; Navarro Romero, E

> <Link to Ligand in BindingDB>
http://www.bindingdb.org/bind/chemsearch/marvin/MolStructure.jsp?monomerid=119818

> <Link to Ligand-Target Pair in BindingDB>
http://www.bindingdb.org/jsp/dbsearch/PrimarySearch_ki.jsp?energyterm=kJ/mole&tag=r21&monomerid=119818&enzyme=Dihydroorotate+dehydrogenase&column=ki&startPg=0&Increment=50&submit=Search

> <PubChem CID>
24987916

> <PubChem SID>
220230612

$$$$

  Mrv2115 07222212352D          

 30 32  0  0  0  0            999 V2000
   10.7171    1.2375    0.0000 O   0  0  0  0  0  0  0  0  0  0  0  0
   10.7171    0.4125    0.0000 C   0  0  0  0  0  0  0  0  0  0  0  0
   10.0026    0.0000    0.0000 C   0  0  0  0  0  0  0  0  0  0  0  0
    9.2881    0.4125    0.0000 C   0  0  0  0  0  0  0  0  0  0  0  0
    8.5737    0.0000    0.0000 C   0  0  0  0  0  0  0  0  0  0  0  0
    7.8592    0.4125    0.0000 N   0  0  0  0  0  0  0  0  0  0  0  0
    7.1447    0.0000    0.0000 C   0  0  0  0  0  0  0  0  0  0  0  0
    7.1447   -0.8250    0.0000 O   0  0  0  0  0  0  0  0  0  0  0  0
    6.4302    0.4125    0.0000 C   0  0  0  0  0  0  0  0  0  0  0  0
    5.7158    0.0000    0.0000 C   0  0  0  0  0  0  0  0  0  0  0  0
    5.0013    0.4125    0.0000 C   0  0  0  0  0  0  0  0  0  0  0  0
    5.0013    1.2375    0.0000 C   0  0  0  0  0  0  0  0  0  0  0  0
    4.2868    1.6500    0.0000 O   0  0  0  0  0  0  0  0  0  0  0  0
    4.2868    2.4750    0.0000 C   0  0  0  0  0  0  0  0  0  0  0  0
    4.2868    3.3000    0.0000 F   0  0  0  0  0  0  0  0  0  0  0  0
    3.4618    2.4750    0.0000 F   0  0  0  0  0  0  0  0  0  0  0  0
    5.1118    2.4750    0.0000 F   0  0  0  0  0  0  0  0  0  0  0  0
    5.7158    1.6500    0.0000 C   0  0  0  0  0  0  0  0  0  0  0  0
    6.4302    1.2375    0.0000 C   0  0  0  0  0  0  0  0  0  0  0  0
   11.4315    0.0000    0.0000 N   0  0  0  0  0  0  0  0  0  0  0  0
   12.1460    0.4125    0.0000 C   0  0  0  0  0  0  0  0  0  0  0  0
   12.1460    1.2375    0.0000 C   0  0  0  0  0  0  0  0  0  0  0  0
   12.8605    1.6500    0.0000 C   0  0  0  0  0  0  0  0  0  0  0  0
   13.5749    1.2375    0.0000 C   0  0  0  0  0  0  0  0  0  0  0  0
   13.5749    0.4125    0.0000 C   0  0  0  0  0  0  0  0  0  0  0  0
   14.2894    0.0000    0.0000 C   0  0  0  0  0  0  0  0  0  0  0  0
   14.2894   -0.8250    0.0000 C   0  0  0  0  0  0  0  0  0  0  0  0
   13.5749   -1.2375    0.0000 C   0  0  0  0  0  0  0  0  0  0  0  0
   12.8605   -0.8250    0.0000 C   0  0  0  0  0  0  0  0  0  0  0  0
   12.8605    0.0000    0.0000 C   0  0  0  0  0  0  0  0  0  0  0  0
  1  2  2  0  0  0  0
  2  3  1  0  0  0  0
  3  4  1  0  0  0  0
  4  5  1  0  0  0  0
  5  6  1  0  0  0  0
  6  7  1  0  0  0  0
  7  8  2  0  0  0  0
  7  9  1  0  0  0  0
  9 10  4  0  0  0  0
 10 11  4  0  0  0  0
 11 12  4  0  0  0  0
 12 13  1  0  0  0  0
 13 14  1  0  0  0  0
 14 15  1  0  0  0  0
 14 16  1  0  0  0  0
 14 17  1  0  0  0  0
 12 18  4  0  0  0  0
 18 19  4  0  0  0  0
  9 19  4  0  0  0  0
  2 20  1  0  0  0  0
 20 21  1  0  0  0  0
 21 22  1  0  0  0  0
 22 23  1  0  0  0  0
 23 24  1  0  0  0  0
 24 25  1  0  0  0  0
 25 26  4  0  0  0  0
 26 27  4  0  0  0  0
 27 28  4  0  0  0  0
 28 29  4  0  0  0  0
 29 30  4  0  0  0  0
 25 30  4  0  0  0  0
 21 30  1  0  0  0  0
M  END
> <IC50(uM)>
20.0

> <Outcome>
0.0

> <BindingDB ID>
50527797

> <BindingDB MonomerID>
50201639

> <BindingDB Ligand Name>
CHEMBL3951514

> <Curation/DataSource>
ChEMBL

> <Article DOI>
10.1021/acsmedchemlett.6b00316

> <PMID>
27994748

> <Patent Number>
?

> <Authors>
Lewis, TA; Sykes, DB; Law, JM; Mu??oz, B; Rustiguel, JK; Nonato, MC; Scadden, DT; Schreiber, SL

> <Link to Ligand in BindingDB>
http://www.bindingdb.org/bind/chemsearch/marvin/MolStructure.jsp?monomerid=50201639

> <Link to Ligand-Target Pair in BindingDB>
http://www.bindingdb.org/jsp/dbsearch/PrimarySearch_ki.jsp?energyterm=kJ/mole&tag=r21&monomerid=50201639&enzyme=Dihydroorotate+dehydrogenase&column=ki&startPg=0&Increment=50&submit=Search

> <PubChem CID>
71768311

> <PubChem SID>
375979427

$$$$

  Mrv2115 07222212352D          

 35 38  0  0  0  0            999 V2000
   -5.5784    2.1599    0.0000 C   0  0  0  0  0  0  0  0  0  0  0  0
   -5.1659    1.4455    0.0000 C   0  0  0  0  0  0  0  0  0  0  0  0
   -4.3409    1.4455    0.0000 C   0  0  0  0  0  0  0  0  0  0  0  0
   -3.9284    2.1599    0.0000 C   0  0  0  0  0  0  0  0  0  0  0  0
   -3.1034    2.1599    0.0000 C   0  0  0  0  0  0  0  0  0  0  0  0
   -2.6909    1.4455    0.0000 C   0  0  0  0  0  0  0  0  0  0  0  0
   -3.1034    0.7310    0.0000 C   0  0  0  0  0  0  0  0  0  0  0  0
   -3.9284    0.7310    0.0000 C   0  0  0  0  0  0  0  0  0  0  0  0
   -4.3409    0.0165    0.0000 N   0  0  0  0  0  0  0  0  0  0  0  0
   -3.9284   -0.6979    0.0000 C   0  0  0  0  0  0  0  0  0  0  0  0
   -4.3409   -1.4124    0.0000 O   0  0  0  0  0  0  0  0  0  0  0  0
   -3.1034   -0.6979    0.0000 C   0  0  0  0  0  0  0  0  0  0  0  0
   -2.6909    0.0165    0.0000 C   0  0  0  0  0  0  0  0  0  0  0  0
   -1.8659    0.0165    0.0000 C   0  0  0  0  0  0  0  0  0  0  0  0
   -1.4534    0.7310    0.0000 F   0  0  0  0  0  0  0  0  0  0  0  0
   -1.4534   -0.6979    0.0000 C   0  0  0  0  0  0  0  0  0  0  0  0
   -0.6284   -0.6979    0.0000 N   0  0  0  0  0  0  0  0  0  0  0  0
   -0.1435   -1.3654    0.0000 N   0  0  0  0  0  0  0  0  0  0  0  0
    0.6411   -1.1104    0.0000 C   0  0  0  0  0  0  0  0  0  0  0  0
    0.6411   -0.2854    0.0000 N   0  0  0  0  0  0  0  0  0  0  0  0
   -0.1435   -0.0305    0.0000 C   0  0  0  0  0  0  0  0  0  0  0  0
   -0.3984    0.7541    0.0000 O   0  0  0  0  0  0  0  0  0  0  0  0
    1.3556    0.1271    0.0000 C   0  0  0  0  0  0  0  0  0  0  0  0
    2.0701   -0.2854    0.0000 C   0  0  0  0  0  0  0  0  0  0  0  0
    2.0701   -1.1104    0.0000 C   0  0  0  0  0  0  0  0  0  0  0  0
    1.3556   -1.5229    0.0000 C   0  0  0  0  0  0  0  0  0  0  0  0
   -1.8659   -1.4124    0.0000 C   0  0  0  0  0  0  0  0  0  0  0  0
   -2.6909   -1.4124    0.0000 C   0  0  0  0  0  0  0  0  0  0  0  0
   -3.1034   -2.1269    0.0000 O   0  0  0  0  0  0  0  0  0  0  0  0
   -2.6909   -2.8414    0.0000 C   0  0  0  0  0  0  0  0  0  0  0  0
   -1.8659   -2.8414    0.0000 C   0  0  0  0  0  0  0  0  0  0  0  0
   -3.1034   -3.5558    0.0000 C   0  0  0  0  0  0  0  0  0  0  0  0
   -3.8179   -3.1433    0.0000 F   0  0  0  0  0  0  0  0  0  0  0  0
   -2.3890   -3.9683    0.0000 F   0  0  0  0  0  0  0  0  0  0  0  0
   -3.5159   -4.2703    0.0000 F   0  0  0  0  0  0  0  0  0  0  0  0
  1  2  1  0  0  0  0
  2  3  1  0  0  0  0
  3  4  4  0  0  0  0
  4  5  4  0  0  0  0
  5  6  4  0  0  0  0
  6  7  4  0  0  0  0
  7  8  4  0  0  0  0
  3  8  4  0  0  0  0
  8  9  1  0  0  0  0
  9 10  1  0  0  0  0
 10 11  2  0  0  0  0
 10 12  1  0  0  0  0
 12 13  4  0  0  0  0
 13 14  4  0  0  0  0
 14 15  1  0  0  0  0
 14 16  4  0  0  0  0
 16 17  1  0  0  0  0
 17 18  4  0  0  0  0
 18 19  4  0  0  0  0
 19 20  4  0  0  0  0
 20 21  4  0  0  0  0
 17 21  4  0  0  0  0
 21 22  2  0  0  0  0
 20 23  1  0  0  0  0
 23 24  1  0  0  0  0
 24 25  1  0  0  0  0
 25 26  1  0  0  0  0
 19 26  1  0  0  0  0
 16 27  4  0  0  0  0
 27 28  4  0  0  0  0
 12 28  4  0  0  0  0
 28 29  1  0  0  0  0
 29 30  1  0  0  0  0
 30 31  1  0  0  0  0
 30 32  1  0  0  0  0
 32 33  1  0  0  0  0
 32 34  1  0  0  0  0
 32 35  1  0  0  0  0
M  END
> <IC50(uM)>
0.014

> <Outcome>
1.0

> <BindingDB ID>
1020441

> <BindingDB MonomerID>
490392

> <BindingDB Ligand Name>
N-(2-ethylphenyl)-5-fluoro-4-(3-oxo-5,6,7,8-tetrahydro[1,2,4]triazolo[4,3-a]pyridin-2(3H)-yl)-2-{[(2S)-1,1,1-trifluoropropan-2-yl]oxy}benzamide::US10968216, Example 60

> <Curation/DataSource>
US Patent

> <Article DOI>
?

> <PMID>
?

> <Patent Number>
US10968216

> <Authors>
Gradl, SN; Nguyen, D; Eis, K; Gunther, J; Stellfeld, T; Janzer, A; Christian, S; Mueller, T; Sheikh, SE; Zhou, HJ; Zhao, C; Sykes, DB; Ferrara, SJ; Liu, K; Herbert, SA; Merz, C; Niehues, M; Nising, CF; Schafer, M; Zimmermann, K; Knablein, J; Thede, K; Faupel, T

> <Link to Ligand in BindingDB>
http://www.bindingdb.org/bind/chemsearch/marvin/MolStructure.jsp?monomerid=490392

> <Link to Ligand-Target Pair in BindingDB>
http://www.bindingdb.org/jsp/dbsearch/PrimarySearch_ki.jsp?energyterm=kJ/mole&tag=r21&monomerid=490392&enzyme=Dihydroorotate+dehydrogenase&column=ki&startPg=0&Increment=50&submit=Search

> <PubChem CID>
134473951

> <PubChem SID>
447117119

$$$$

  Mrv2115 07222212352D          

 15 16  0  0  0  0            999 V2000
    4.7812    3.5854    0.0000 C   0  0  0  0  0  0  0  0  0  0  0  0
    4.0668    3.1729    0.0000 C   0  0  0  0  0  0  0  0  0  0  0  0
    3.3523    3.5854    0.0000 C   0  0  0  0  0  0  0  0  0  0  0  0
    4.0668    2.3479    0.0000 C   0  0  0  0  0  0  0  0  0  0  0  0
    3.3523    1.9354    0.0000 C   0  0  0  0  0  0  0  0  0  0  0  0
    3.3523    1.1104    0.0000 N   0  0  0  0  0  0  0  0  0  0  0  0
    2.6378    0.6979    0.0000 C   0  0  0  0  0  0  0  0  0  0  0  0
    2.6378   -0.1271    0.0000 O   0  0  0  0  0  0  0  0  0  0  0  0
    1.9233    1.1104    0.0000 C   0  0  0  0  0  0  0  0  0  0  0  0
    1.1387    0.8555    0.0000 C   0  0  0  0  0  0  0  0  0  0  0  0
    0.6538    1.5229    0.0000 C   0  0  0  0  0  0  0  0  0  0  0  0
    1.1387    2.1904    0.0000 C   0  0  0  0  0  0  0  0  0  0  0  0
    1.9233    1.9354    0.0000 N   0  0  0  0  0  0  0  0  0  0  0  0
    2.6378    2.3479    0.0000 C   0  0  0  0  0  0  0  0  0  0  0  0
    2.6378    3.1729    0.0000 O   0  0  0  0  0  0  0  0  0  0  0  0
  1  2  1  0  0  0  0
  2  3  1  0  0  0  0
  2  4  1  0  0  0  0
  4  5  1  0  0  0  0
  5  6  1  0  0  0  0
  6  7  1  0  0  0  0
  7  8  2  0  0  0  0
  7  9  1  0  0  0  0
  9 10  1  0  0  0  0
 10 11  1  0  0  0  0
 11 12  1  0  0  0  0
 12 13  1  0  0  0  0
  9 13  1  0  0  0  0
 13 14  1  0  0  0  0
  5 14  1  0  0  0  0
 14 15  2  0  0  0  0
M  END
> <IC50(uM)>
50.0

> <Outcome>
0.0

> <BindingDB ID>
306824

> <BindingDB MonomerID>
163709

> <BindingDB Ligand Name>
Cyclo L-Pro-L-Leu (Fr. 1-6)

> <Curation/DataSource>
Curated from the literature by BindingDB

> <Article DOI>
10.1111/cbdd.12530

> <PMID>
25626527

> <Patent Number>
?

> <Authors>
Jiang, L; Wen, H; Shao, Y; Yu, R; Liu, Z; Wang, S; Wang, Q; Zhao, X; Zhang, P; Tao, Y; Mei, L

> <Link to Ligand in BindingDB>
http://www.bindingdb.org/bind/chemsearch/marvin/MolStructure.jsp?monomerid=163709

> <Link to Ligand-Target Pair in BindingDB>
http://www.bindingdb.org/jsp/dbsearch/PrimarySearch_ki.jsp?energyterm=kJ/mole&tag=r21&monomerid=163709&enzyme=Dihydroorotate+dehydrogenase&column=ki&startPg=0&Increment=50&submit=Search

> <PubChem CID>
7074739

> <PubChem SID>
311419060

$$$$

  Mrv2115 07222212352D          

 29 31  0  0  0  0            999 V2000
   -2.1434   -1.2375    0.0000 C   0  0  0  0  0  0  0  0  0  0  0  0
   -2.8579   -1.6500    0.0000 O   0  0  0  0  0  0  0  0  0  0  0  0
   -2.8579   -2.4750    0.0000 C   0  0  0  0  0  0  0  0  0  0  0  0
   -2.1434   -2.8875    0.0000 C   0  0  0  0  0  0  0  0  0  0  0  0
   -2.1434   -3.7125    0.0000 C   0  0  0  0  0  0  0  0  0  0  0  0
   -2.8579   -4.1250    0.0000 C   0  0  0  0  0  0  0  0  0  0  0  0
   -3.5724   -3.7125    0.0000 C   0  0  0  0  0  0  0  0  0  0  0  0
   -4.2868   -4.1250    0.0000 C   0  0  0  0  0  0  0  0  0  0  0  0
   -5.0013   -3.7125    0.0000 N   0  0  0  0  0  0  0  0  0  0  0  0
   -5.7158   -4.1250    0.0000 C   0  0  0  0  0  0  0  0  0  0  0  0
   -5.7158   -4.9500    0.0000 C   0  0  0  0  0  0  0  0  0  0  0  0
   -6.4302   -5.3625    0.0000 N   0  0  0  0  0  0  0  0  0  0  0  0
   -6.4302   -6.1875    0.0000 C   0  0  0  0  0  0  0  0  0  0  0  0
   -5.7158   -6.6000    0.0000 C   0  0  0  0  0  0  0  0  0  0  0  0
   -5.7158   -7.4250    0.0000 C   0  0  0  0  0  0  0  0  0  0  0  0
   -6.4302   -7.8375    0.0000 C   0  0  0  0  0  0  0  0  0  0  0  0
   -6.4302   -8.6625    0.0000 C   0  0  0  0  0  0  0  0  0  0  0  0
   -6.4302   -9.4875    0.0000 F   0  0  0  0  0  0  0  0  0  0  0  0
   -7.2552   -8.6625    0.0000 F   0  0  0  0  0  0  0  0  0  0  0  0
   -5.6052   -8.6625    0.0000 F   0  0  0  0  0  0  0  0  0  0  0  0
   -7.1447   -7.4250    0.0000 C   0  0  0  0  0  0  0  0  0  0  0  0
   -7.1447   -6.6000    0.0000 C   0  0  0  0  0  0  0  0  0  0  0  0
   -7.8592   -6.1875    0.0000 C   0  0  0  0  0  0  0  0  0  0  0  0
   -7.8592   -5.3625    0.0000 O   0  0  0  0  0  0  0  0  0  0  0  0
   -8.5737   -6.6000    0.0000 O   0  0  0  0  0  0  0  0  0  0  0  0
   -5.0013   -5.3625    0.0000 C   0  0  0  0  0  0  0  0  0  0  0  0
   -4.2868   -4.9500    0.0000 C   0  0  0  0  0  0  0  0  0  0  0  0
   -3.5724   -5.3625    0.0000 C   0  0  0  0  0  0  0  0  0  0  0  0
   -3.5724   -2.8875    0.0000 C   0  0  0  0  0  0  0  0  0  0  0  0
  1  2  1  0  0  0  0
  2  3  1  0  0  0  0
  3  4  4  0  0  0  0
  4  5  4  0  0  0  0
  5  6  4  0  0  0  0
  6  7  4  0  0  0  0
  7  8  1  0  0  0  0
  8  9  4  0  0  0  0
  9 10  4  0  0  0  0
 10 11  4  0  0  0  0
 11 12  1  0  0  0  0
 12 13  1  0  0  0  0
 13 14  4  0  0  0  0
 14 15  4  0  0  0  0
 15 16  4  0  0  0  0
 16 17  1  0  0  0  0
 17 18  1  0  0  0  0
 17 19  1  0  0  0  0
 17 20  1  0  0  0  0
 16 21  4  0  0  0  0
 21 22  4  0  0  0  0
 13 22  4  0  0  0  0
 22 23  1  0  0  0  0
 23 24  2  0  0  0  0
 23 25  1  0  0  0  0
 11 26  4  0  0  0  0
 26 27  4  0  0  0  0
  8 27  4  0  0  0  0
 27 28  1  0  0  0  0
  7 29  4  0  0  0  0
  3 29  4  0  0  0  0
M  END
> <IC50(uM)>
0.138

> <Outcome>
1.0

> <BindingDB ID>
219993

> <BindingDB MonomerID>
102463

> <BindingDB Ligand Name>
US8536165, 50

> <Curation/DataSource>
US Patent

> <Article DOI>
?

> <PMID>
?

> <Patent Number>
US8536165

> <Authors>
Castro Palomino Laria, JC; Terricabras Belart, E; Erra Sola, M; Navarro Romero, E; Fonquerna Pou, S; Cardus Figueras, A; Lozoya Toribio, ME

> <Link to Ligand in BindingDB>
http://www.bindingdb.org/bind/chemsearch/marvin/MolStructure.jsp?monomerid=102463

> <Link to Ligand-Target Pair in BindingDB>
http://www.bindingdb.org/jsp/dbsearch/PrimarySearch_ki.jsp?energyterm=kJ/mole&tag=r21&monomerid=102463&enzyme=Dihydroorotate+dehydrogenase&column=ki&startPg=0&Increment=50&submit=Search

> <PubChem CID>
25187569

> <PubChem SID>
172097754

$$$$

  Mrv2115 07222212352D          

 25 28  0  0  0  0            999 V2000
    3.9934    2.4750    0.0000 O   0  0  0  0  0  0  0  0  0  0  0  0
    3.2789    2.0625    0.0000 C   0  0  0  0  0  0  0  0  0  0  0  0
    2.5645    2.4750    0.0000 O   0  0  0  0  0  0  0  0  0  0  0  0
    3.2789    1.2375    0.0000 C   0  0  0  0  0  0  0  0  0  0  0  0
    3.9934    0.8250    0.0000 C   0  0  0  0  0  0  0  0  0  0  0  0
    3.9934    0.0000    0.0000 C   0  0  0  0  0  0  0  0  0  0  0  0
    3.2789   -0.4125    0.0000 C   0  0  0  0  0  0  0  0  0  0  0  0
    2.5645    0.0000    0.0000 C   0  0  0  0  0  0  0  0  0  0  0  0
    1.7798   -0.2549    0.0000 N   0  0  0  0  0  0  0  0  0  0  0  0
    1.2949    0.4125    0.0000 C   0  0  0  0  0  0  0  0  0  0  0  0
    0.4699    0.4125    0.0000 C   0  0  0  0  0  0  0  0  0  0  0  0
    0.0574   -0.3020    0.0000 C   0  0  0  0  0  0  0  0  0  0  0  0
   -0.7676   -0.3020    0.0000 C   0  0  0  0  0  0  0  0  0  0  0  0
   -1.1801    0.4125    0.0000 C   0  0  0  0  0  0  0  0  0  0  0  0
   -2.0051    0.4125    0.0000 C   0  0  0  0  0  0  0  0  0  0  0  0
   -2.4176   -0.3020    0.0000 C   0  0  0  0  0  0  0  0  0  0  0  0
   -3.2426   -0.3020    0.0000 C   0  0  0  0  0  0  0  0  0  0  0  0
   -3.6551    0.4125    0.0000 C   0  0  0  0  0  0  0  0  0  0  0  0
   -3.2426    1.1270    0.0000 C   0  0  0  0  0  0  0  0  0  0  0  0
   -2.4176    1.1270    0.0000 C   0  0  0  0  0  0  0  0  0  0  0  0
   -2.0051    1.8414    0.0000 F   0  0  0  0  0  0  0  0  0  0  0  0
   -0.7676    1.1270    0.0000 C   0  0  0  0  0  0  0  0  0  0  0  0
    0.0574    1.1270    0.0000 C   0  0  0  0  0  0  0  0  0  0  0  0
    1.7798    1.0799    0.0000 N   0  0  0  0  0  0  0  0  0  0  0  0
    2.5645    0.8250    0.0000 C   0  0  0  0  0  0  0  0  0  0  0  0
  1  2  2  0  0  0  0
  2  3  1  0  0  0  0
  2  4  1  0  0  0  0
  4  5  4  0  0  0  0
  5  6  4  0  0  0  0
  6  7  4  0  0  0  0
  7  8  4  0  0  0  0
  8  9  4  0  0  0  0
  9 10  4  0  0  0  0
 10 11  1  0  0  0  0
 11 12  4  0  0  0  0
 12 13  4  0  0  0  0
 13 14  4  0  0  0  0
 14 15  1  0  0  0  0
 15 16  4  0  0  0  0
 16 17  4  0  0  0  0
 17 18  4  0  0  0  0
 18 19  4  0  0  0  0
 19 20  4  0  0  0  0
 15 20  4  0  0  0  0
 20 21  1  0  0  0  0
 14 22  4  0  0  0  0
 22 23  4  0  0  0  0
 11 23  4  0  0  0  0
 10 24  4  0  0  0  0
 24 25  4  0  0  0  0
  4 25  4  0  0  0  0
  8 25  4  0  0  0  0
M  STY  1   1 DAT
M  SAL   1  1   9
M  SDT   1 MRV_IMPLICIT_H                                        
M  SDD   1     0.5304   -0.4125    DR    ALL  0       0  
M  SED   1 IMPL_H1
M  END
> <IC50(uM)>
0.49

> <Outcome>
1.0

> <BindingDB ID>
297750

> <BindingDB MonomerID>
155406

> <BindingDB Ligand Name>
US9006454, I15

> <Curation/DataSource>
US Patent

> <Article DOI>
?

> <PMID>
?

> <Patent Number>
US9006454

> <Authors>
Thunuguntla, SS; Subramanya, H; Kunnam, SR; Sanivaru Vijay, SR; Bingi, C; Kusanur, R; Schwarz, M; Arlt, M

> <Link to Ligand in BindingDB>
http://www.bindingdb.org/bind/chemsearch/marvin/MolStructure.jsp?monomerid=155406

> <Link to Ligand-Target Pair in BindingDB>
http://www.bindingdb.org/jsp/dbsearch/PrimarySearch_ki.jsp?energyterm=kJ/mole&tag=r21&monomerid=155406&enzyme=Dihydroorotate+dehydrogenase&column=ki&startPg=0&Increment=50&submit=Search

> <PubChem CID>
46945791

> <PubChem SID>
253658343

$$$$

  Mrv2115 07222212352D          

 40 44  0  0  0  0            999 V2000
   -1.8659    1.4455    0.0000 C   0  0  0  0  0  0  0  0  0  0  0  0
   -2.6909    1.4455    0.0000 C   0  0  0  0  0  0  0  0  0  0  0  0
   -3.1034    0.7310    0.0000 O   0  0  0  0  0  0  0  0  0  0  0  0
   -2.6909    0.0165    0.0000 C   0  0  0  0  0  0  0  0  0  0  0  0
   -1.8659    0.0165    0.0000 C   0  0  0  0  0  0  0  0  0  0  0  0
   -1.4534   -0.6979    0.0000 C   0  0  0  0  0  0  0  0  0  0  0  0
   -0.6284   -0.6979    0.0000 N   0  0  0  0  0  0  0  0  0  0  0  0
   -0.1435   -1.3654    0.0000 N   0  0  0  0  0  0  0  0  0  0  0  0
    0.6411   -1.1104    0.0000 C   0  0  0  0  0  0  0  0  0  0  0  0
    0.6411   -0.2854    0.0000 N   0  0  0  0  0  0  0  0  0  0  0  0
   -0.1435   -0.0305    0.0000 C   0  0  0  0  0  0  0  0  0  0  0  0
   -0.3984    0.7541    0.0000 O   0  0  0  0  0  0  0  0  0  0  0  0
    1.3556    0.1271    0.0000 C   0  0  0  0  0  0  0  0  0  0  0  0
    2.0701   -0.2854    0.0000 C   0  0  0  0  0  0  0  0  0  0  0  0
    2.0701   -1.1104    0.0000 C   0  0  0  0  0  0  0  0  0  0  0  0
    1.3556   -1.5229    0.0000 C   0  0  0  0  0  0  0  0  0  0  0  0
   -1.8659   -1.4124    0.0000 C   0  0  0  0  0  0  0  0  0  0  0  0
   -1.4534   -2.1269    0.0000 F   0  0  0  0  0  0  0  0  0  0  0  0
   -2.6909   -1.4124    0.0000 C   0  0  0  0  0  0  0  0  0  0  0  0
   -3.1034   -0.6979    0.0000 C   0  0  0  0  0  0  0  0  0  0  0  0
   -3.9284   -0.6979    0.0000 C   0  0  0  0  0  0  0  0  0  0  0  0
   -4.3409   -1.4124    0.0000 O   0  0  0  0  0  0  0  0  0  0  0  0
   -4.3409    0.0165    0.0000 N   0  0  0  0  0  0  0  0  0  0  0  0
   -5.1659    0.0165    0.0000 C   0  0  0  0  0  0  0  0  0  0  0  0
   -5.5784   -0.6979    0.0000 C   0  0  0  0  0  0  0  0  0  0  0  0
   -6.4034   -0.6979    0.0000 C   0  0  0  0  0  0  0  0  0  0  0  0
   -6.8159    0.0165    0.0000 C   0  0  0  0  0  0  0  0  0  0  0  0
   -6.4034    0.7310    0.0000 C   0  0  0  0  0  0  0  0  0  0  0  0
   -6.8159    1.4455    0.0000 C   0  0  0  0  0  0  0  0  0  0  0  0
   -7.6409    1.4455    0.0000 O   0  0  0  0  0  0  0  0  0  0  0  0
   -6.4034    2.1599    0.0000 N   0  0  0  0  0  0  0  0  0  0  0  0
   -6.8159    2.8744    0.0000 C   0  0  0  0  0  0  0  0  0  0  0  0
   -5.5784    2.1599    0.0000 C   0  0  0  0  0  0  0  0  0  0  0  0
   -5.5784    0.7310    0.0000 C   0  0  0  0  0  0  0  0  0  0  0  0
   -3.1034    2.1599    0.0000 C   0  0  0  0  0  0  0  0  0  0  0  0
   -3.9284    2.1599    0.0000 C   0  0  0  0  0  0  0  0  0  0  0  0
   -4.3409    2.8744    0.0000 C   0  0  0  0  0  0  0  0  0  0  0  0
   -3.9284    3.5889    0.0000 C   0  0  0  0  0  0  0  0  0  0  0  0
   -3.1034    3.5889    0.0000 C   0  0  0  0  0  0  0  0  0  0  0  0
   -2.6909    2.8744    0.0000 C   0  0  0  0  0  0  0  0  0  0  0  0
  1  2  1  0  0  0  0
  2  3  1  0  0  0  0
  3  4  1  0  0  0  0
  4  5  4  0  0  0  0
  5  6  4  0  0  0  0
  6  7  1  0  0  0  0
  7  8  4  0  0  0  0
  8  9  4  0  0  0  0
  9 10  4  0  0  0  0
 10 11  4  0  0  0  0
  7 11  4  0  0  0  0
 11 12  2  0  0  0  0
 10 13  1  0  0  0  0
 13 14  1  0  0  0  0
 14 15  1  0  0  0  0
 15 16  1  0  0  0  0
  9 16  1  0  0  0  0
  6 17  4  0  0  0  0
 17 18  1  0  0  0  0
 17 19  4  0  0  0  0
 19 20  4  0  0  0  0
  4 20  4  0  0  0  0
 20 21  1  0  0  0  0
 21 22  2  0  0  0  0
 21 23  1  0  0  0  0
 23 24  1  0  0  0  0
 24 25  4  0  0  0  0
 25 26  4  0  0  0  0
 26 27  4  0  0  0  0
 27 28  4  0  0  0  0
 28 29  1  0  0  0  0
 29 30  2  0  0  0  0
 29 31  1  0  0  0  0
 31 32  1  0  0  0  0
 31 33  1  0  0  0  0
 28 34  4  0  0  0  0
 24 34  4  0  0  0  0
  2 35  1  0  0  0  0
 35 36  1  0  0  0  0
 36 37  1  0  0  0  0
 37 38  1  0  0  0  0
 38 39  1  0  0  0  0
 39 40  1  0  0  0  0
 35 40  1  0  0  0  0
M  END
> <IC50(uM)>
0.1

> <Outcome>
1.0

> <BindingDB ID>
1020503

> <BindingDB MonomerID>
490451

> <BindingDB Ligand Name>
2-[(1S)-1-cyclohexylethoxy]-N-[3-(dimethylcarbamoyl)phenyl]-5-fluoro-4-(3-oxo-5,6,7,8-tetrahydro[1,2,4]triazolo[4,3-a]pyridin-2(3H)-yl)benzamide::US10968216, Example 119

> <Curation/DataSource>
US Patent

> <Article DOI>
?

> <PMID>
?

> <Patent Number>
US10968216

> <Authors>
Gradl, SN; Nguyen, D; Eis, K; Gunther, J; Stellfeld, T; Janzer, A; Christian, S; Mueller, T; Sheikh, SE; Zhou, HJ; Zhao, C; Sykes, DB; Ferrara, SJ; Liu, K; Herbert, SA; Merz, C; Niehues, M; Nising, CF; Schafer, M; Zimmermann, K; Knablein, J; Thede, K; Faupel, T

> <Link to Ligand in BindingDB>
http://www.bindingdb.org/bind/chemsearch/marvin/MolStructure.jsp?monomerid=490451

> <Link to Ligand-Target Pair in BindingDB>
http://www.bindingdb.org/jsp/dbsearch/PrimarySearch_ki.jsp?energyterm=kJ/mole&tag=r21&monomerid=490451&enzyme=Dihydroorotate+dehydrogenase&column=ki&startPg=0&Increment=50&submit=Search

> <PubChem CID>
134474132

> <PubChem SID>
447117178

$$$$

  Mrv2115 07222212352D          

 24 25  0  0  0  0            999 V2000
   -2.1434   -2.0625    0.0000 C   0  0  0  0  0  0  0  0  0  0  0  0
   -2.1434   -1.2375    0.0000 O   0  0  0  0  0  0  0  0  0  0  0  0
   -2.8579   -0.8250    0.0000 C   0  0  0  0  0  0  0  0  0  0  0  0
   -3.5724   -1.2375    0.0000 C   0  0  0  0  0  0  0  0  0  0  0  0
   -4.2868   -0.8250    0.0000 C   0  0  0  0  0  0  0  0  0  0  0  0
   -4.2868   -0.0000    0.0000 C   0  0  0  0  0  0  0  0  0  0  0  0
   -3.5724    0.4125    0.0000 C   0  0  0  0  0  0  0  0  0  0  0  0
   -2.8579   -0.0000    0.0000 C   0  0  0  0  0  0  0  0  0  0  0  0
   -2.1434    0.4125    0.0000 C   0  0  0  0  0  0  0  0  0  0  0  0
   -2.1434    1.2375    0.0000 C   0  0  0  0  0  0  0  0  0  0  0  0
   -1.4289    1.6500    0.0000 C   0  0  0  0  0  0  0  0  0  0  0  0
   -0.7145    1.2375    0.0000 C   0  0  0  0  0  0  0  0  0  0  0  0
    0.0000    1.6500    0.0000 N   0  0  0  0  0  0  0  0  0  0  0  0
    0.0000    2.4750    0.0000 C   0  0  0  0  0  0  0  0  0  0  0  0
   -0.7145    2.8875    0.0000 O   0  0  0  0  0  0  0  0  0  0  0  0
    0.7145    2.8875    0.0000 C   0  0  0  0  0  0  0  0  0  0  0  0
    0.7145    3.7125    0.0000 C   0  0  0  0  0  0  0  0  0  0  0  0
    0.7145    4.5375    0.0000 N   0  0  0  0  0  0  0  0  0  0  0  0
    1.4289    2.4750    0.0000 C   0  0  0  0  0  0  0  0  0  0  0  0
    2.1434    2.8875    0.0000 C   0  0  0  0  0  0  0  0  0  0  0  0
    1.4289    1.6500    0.0000 O   0  0  0  0  0  0  0  0  0  0  0  0
   -0.7145    0.4125    0.0000 C   0  0  0  0  0  0  0  0  0  0  0  0
    0.0000    0.0000    0.0000 Cl  0  0  0  0  0  0  0  0  0  0  0  0
   -1.4289   -0.0000    0.0000 C   0  0  0  0  0  0  0  0  0  0  0  0
  1  2  1  0  0  0  0
  2  3  1  0  0  0  0
  3  4  4  0  0  0  0
  4  5  4  0  0  0  0
  5  6  4  0  0  0  0
  6  7  4  0  0  0  0
  7  8  4  0  0  0  0
  3  8  4  0  0  0  0
  8  9  1  0  0  0  0
  9 10  4  0  0  0  0
 10 11  4  0  0  0  0
 11 12  4  0  0  0  0
 12 13  1  0  0  0  0
 13 14  1  0  0  0  0
 14 15  2  0  0  0  0
 14 16  1  0  0  0  0
 16 17  1  0  0  0  0
 17 18  3  0  0  0  0
 16 19  1  0  0  0  0
 19 20  1  0  0  0  0
 19 21  2  0  0  0  0
 12 22  4  0  0  0  0
 22 23  1  0  0  0  0
 22 24  4  0  0  0  0
  9 24  4  0  0  0  0
M  END
> <IC50(uM)>
0.2

> <Outcome>
1.0

> <BindingDB ID>
52789

> <BindingDB MonomerID>
29029

> <BindingDB Ligand Name>
cyanohydroxybutenamide, 19

> <Curation/DataSource>
Curated from the literature by BindingDB

> <Article DOI>
10.1021/jm800963t

> <PMID>
19351152

> <Patent Number>
?

> <Authors>
Davies, M; Heikkil&auml;, T; McConkey, GA; Fishwick, CW; Parsons, MR; Johnson, AP

> <Link to Ligand in BindingDB>
http://www.bindingdb.org/bind/chemsearch/marvin/MolStructure.jsp?monomerid=29029

> <Link to Ligand-Target Pair in BindingDB>
http://www.bindingdb.org/jsp/dbsearch/PrimarySearch_ki.jsp?energyterm=kJ/mole&tag=r21&monomerid=29029&enzyme=Dihydroorotate+dehydrogenase&column=ki&startPg=0&Increment=50&submit=Search

> <PubChem CID>
91896055

> <PubChem SID>
81054458

$$$$

  Mrv2115 07222212352D          

 23 24  0  0  0  0            999 V2000
    3.4656    1.1759    0.0000 C   0  0  0  0  0  0  0  0  0  0  0  0
    2.7512    0.7634    0.0000 C   0  0  0  0  0  0  0  0  0  0  0  0
    2.7512   -0.0616    0.0000 O   0  0  0  0  0  0  0  0  0  0  0  0
    2.0367   -0.4741    0.0000 C   0  0  0  0  0  0  0  0  0  0  0  0
    1.3222   -0.0616    0.0000 O   0  0  0  0  0  0  0  0  0  0  0  0
    2.0367   -1.2991    0.0000 C   0  0  0  0  0  0  0  0  0  0  0  0
    2.7041   -1.7840    0.0000 N   0  0  0  0  0  0  0  0  0  0  0  0
    2.4492   -2.5687    0.0000 C   0  0  0  0  0  0  0  0  0  0  0  0
    2.9341   -3.2361    0.0000 C   0  0  0  0  0  0  0  0  0  0  0  0
    1.6242   -2.5687    0.0000 C   0  0  0  0  0  0  0  0  0  0  0  0
    1.1393   -3.2361    0.0000 C   0  0  0  0  0  0  0  0  0  0  0  0
    0.3188   -3.1499    0.0000 C   0  0  0  0  0  0  0  0  0  0  0  0
   -0.1661   -3.8173    0.0000 C   0  0  0  0  0  0  0  0  0  0  0  0
   -0.9866   -3.7311    0.0000 C   0  0  0  0  0  0  0  0  0  0  0  0
   -1.4715   -4.3985    0.0000 O   0  0  0  0  0  0  0  0  0  0  0  0
   -1.1360   -5.1522    0.0000 C   0  0  0  0  0  0  0  0  0  0  0  0
   -1.3222   -2.9774    0.0000 C   0  0  0  0  0  0  0  0  0  0  0  0
   -0.8372   -2.3099    0.0000 C   0  0  0  0  0  0  0  0  0  0  0  0
   -1.1728   -1.5563    0.0000 O   0  0  0  0  0  0  0  0  0  0  0  0
   -0.6879   -0.8888    0.0000 C   0  0  0  0  0  0  0  0  0  0  0  0
   -0.0168   -2.3962    0.0000 C   0  0  0  0  0  0  0  0  0  0  0  0
    1.3693   -1.7840    0.0000 C   0  0  0  0  0  0  0  0  0  0  0  0
    0.5846   -1.5291    0.0000 C   0  0  0  0  0  0  0  0  0  0  0  0
  1  2  1  0  0  0  0
  2  3  1  0  0  0  0
  3  4  1  0  0  0  0
  4  5  2  0  0  0  0
  4  6  1  0  0  0  0
  6  7  4  0  0  0  0
  7  8  4  0  0  0  0
  8  9  1  0  0  0  0
  8 10  4  0  0  0  0
 10 11  1  0  0  0  0
 11 12  1  0  0  0  0
 12 13  4  0  0  0  0
 13 14  4  0  0  0  0
 14 15  1  0  0  0  0
 15 16  1  0  0  0  0
 14 17  4  0  0  0  0
 17 18  4  0  0  0  0
 18 19  1  0  0  0  0
 19 20  1  0  0  0  0
 18 21  4  0  0  0  0
 12 21  4  0  0  0  0
 10 22  4  0  0  0  0
  6 22  4  0  0  0  0
 22 23  1  0  0  0  0
M  STY  1   1 DAT
M  SAL   1  1   7
M  SDT   1 MRV_IMPLICIT_H                                        
M  SDD   1     0.5304   -0.4125    DR    ALL  0       0  
M  SED   1 IMPL_H1
M  END
> <IC50(uM)>
100.0

> <Outcome>
0.0

> <BindingDB ID>
51330081

> <BindingDB MonomerID>
50538329

> <BindingDB Ligand Name>
CHEMBL4639576

> <Curation/DataSource>
ChEMBL

> <Article DOI>
10.1021/acs.jmedchem.0c00311

> <PMID>
32248693

> <Patent Number>
?

> <Authors>
Kokkonda, S; Deng, X; White, KL; El Mazouni, F; White, J; Shackleford, DM; Katneni, K; Chiu, FCK; Barker, H; McLaren, J; Crighton, E; Chen, G; Angulo-Barturen, I; Jimenez-Diaz, MB; Ferrer, S; Huertas-Valentin, L; Martinez-Martinez, MS; Lafuente-Monasterio, MJ; Chittimalla, R; Shahi, SP; Wittlin, S; Waterson, D; Burrows, JN; Matthews, D; Tomchick, D; Rathod, PK; Palmer, MJ; Charman, SA; Phillips, MA

> <Link to Ligand in BindingDB>
http://www.bindingdb.org/bind/chemsearch/marvin/MolStructure.jsp?monomerid=50538329

> <Link to Ligand-Target Pair in BindingDB>
http://www.bindingdb.org/jsp/dbsearch/PrimarySearch_ki.jsp?energyterm=kJ/mole&tag=r21&monomerid=50538329&enzyme=Dihydroorotate+dehydrogenase&column=ki&startPg=0&Increment=50&submit=Search

> <PubChem CID>
156013243

> <PubChem SID>
442139892

$$$$

  Mrv2115 07222212352D          

 22 22  0  0  0  0            999 V2000
   -0.7145    5.3625    0.0000 C   0  0  0  0  0  0  0  0  0  0  0  0
   -0.7145    4.5375    0.0000 C   0  0  0  0  0  0  0  0  0  0  0  0
   -1.5395    4.5375    0.0000 C   0  0  0  0  0  0  0  0  0  0  0  0
    0.1105    4.5375    0.0000 C   0  0  0  0  0  0  0  0  0  0  0  0
   -0.7145    3.7125    0.0000 C   0  0  0  0  0  0  0  0  0  0  0  0
   -1.4289    3.3000    0.0000 O   0  0  0  0  0  0  0  0  0  0  0  0
    0.0000    3.3000    0.0000 C   0  0  0  0  0  0  0  0  0  0  0  0
    0.7145    3.7125    0.0000 C   0  0  0  0  0  0  0  0  0  0  0  0
    1.4289    4.1250    0.0000 N   0  0  0  0  0  0  0  0  0  0  0  0
    0.0000    2.4750    0.0000 C   0  0  0  0  0  0  0  0  0  0  0  0
   -0.7145    2.0625    0.0000 O   0  0  0  0  0  0  0  0  0  0  0  0
    0.7145    2.0625    0.0000 N   0  0  0  0  0  0  0  0  0  0  0  0
    0.7145    1.2375    0.0000 C   0  0  0  0  0  0  0  0  0  0  0  0
    1.4289    0.8250    0.0000 C   0  0  0  0  0  0  0  0  0  0  0  0
    1.4289   -0.0000    0.0000 C   0  0  0  0  0  0  0  0  0  0  0  0
    0.7145   -0.4125    0.0000 C   0  0  0  0  0  0  0  0  0  0  0  0
    0.7145   -1.2375    0.0000 C   0  0  0  0  0  0  0  0  0  0  0  0
    0.7145   -2.0625    0.0000 F   0  0  0  0  0  0  0  0  0  0  0  0
   -0.1105   -1.2375    0.0000 F   0  0  0  0  0  0  0  0  0  0  0  0
    1.5395   -1.2375    0.0000 F   0  0  0  0  0  0  0  0  0  0  0  0
    0.0000    0.0000    0.0000 C   0  0  0  0  0  0  0  0  0  0  0  0
    0.0000    0.8250    0.0000 C   0  0  0  0  0  0  0  0  0  0  0  0
  1  2  1  0  0  0  0
  2  3  1  0  0  0  0
  2  4  1  0  0  0  0
  2  5  1  0  0  0  0
  5  6  2  0  0  0  0
  5  7  1  0  0  0  0
  7  8  1  0  0  0  0
  8  9  3  0  0  0  0
  7 10  1  0  0  0  0
 10 11  2  0  0  0  0
 10 12  1  0  0  0  0
 12 13  1  0  0  0  0
 13 14  4  0  0  0  0
 14 15  4  0  0  0  0
 15 16  4  0  0  0  0
 16 17  1  0  0  0  0
 17 18  1  0  0  0  0
 17 19  1  0  0  0  0
 17 20  1  0  0  0  0
 16 21  4  0  0  0  0
 21 22  4  0  0  0  0
 13 22  4  0  0  0  0
M  END
> <IC50(uM)>
16.2

> <Outcome>
0.0

> <BindingDB ID>
176940

> <BindingDB MonomerID>
85303

> <BindingDB Ligand Name>
Alpha-cyano-beta-hydroxy enamide, 4

> <Curation/DataSource>
Curated from the literature by BindingDB

> <Article DOI>
?

> <PMID>
?

> <Patent Number>
?

> <Authors>
Papagergiou, C; Zurini, M; Weber, HP; Borer, X

> <Link to Ligand in BindingDB>
http://www.bindingdb.org/bind/chemsearch/marvin/MolStructure.jsp?monomerid=85303

> <Link to Ligand-Target Pair in BindingDB>
http://www.bindingdb.org/jsp/dbsearch/PrimarySearch_ki.jsp?energyterm=kJ/mole&tag=r21&monomerid=85303&enzyme=Dihydroorotate+dehydrogenase&column=ki&startPg=0&Increment=50&submit=Search

> <PubChem CID>
91898956

> <PubChem SID>
136351403

$$$$

  Mrv2115 07222212352D          

 37 41  0  0  0  0            999 V2000
  -10.0712   -2.1269    0.0000 C   0  0  0  0  0  0  0  0  0  0  0  0
   -9.2462   -2.1269    0.0000 C   0  0  0  0  0  0  0  0  0  0  0  0
   -8.8337   -2.8414    0.0000 O   0  0  0  0  0  0  0  0  0  0  0  0
   -8.8337   -1.4124    0.0000 N   0  0  0  0  0  0  0  0  0  0  0  0
   -8.0087   -1.4124    0.0000 C   0  0  0  0  0  0  0  0  0  0  0  0
   -7.5962   -0.6979    0.0000 C   0  0  0  0  0  0  0  0  0  0  0  0
   -6.7712   -0.6979    0.0000 C   0  0  0  0  0  0  0  0  0  0  0  0
   -6.3587   -1.4124    0.0000 C   0  0  0  0  0  0  0  0  0  0  0  0
   -5.5337   -1.4124    0.0000 C   0  0  0  0  0  0  0  0  0  0  0  0
   -5.1212   -0.6979    0.0000 O   0  0  0  0  0  0  0  0  0  0  0  0
   -4.2962   -0.6979    0.0000 C   0  0  0  0  0  0  0  0  0  0  0  0
   -3.8837    0.0165    0.0000 C   0  0  0  0  0  0  0  0  0  0  0  0
   -3.0587    0.0165    0.0000 C   0  0  0  0  0  0  0  0  0  0  0  0
   -2.6462   -0.6979    0.0000 C   0  0  0  0  0  0  0  0  0  0  0  0
   -1.8212   -0.6979    0.0000 C   0  0  0  0  0  0  0  0  0  0  0  0
   -1.4087    0.0165    0.0000 C   0  0  0  0  0  0  0  0  0  0  0  0
   -0.5837    0.0165    0.0000 C   0  0  0  0  0  0  0  0  0  0  0  0
   -0.1712   -0.6979    0.0000 C   0  0  0  0  0  0  0  0  0  0  0  0
    0.6538   -0.6979    0.0000 C   0  0  0  0  0  0  0  0  0  0  0  0
    1.1387   -0.0305    0.0000 N   0  0  0  0  0  0  0  0  0  0  0  0
    1.9233   -0.2854    0.0000 C   0  0  0  0  0  0  0  0  0  0  0  0
    2.6378    0.1271    0.0000 C   0  0  0  0  0  0  0  0  0  0  0  0
    2.6378    0.9521    0.0000 C   0  0  0  0  0  0  0  0  0  0  0  0
    1.9233    1.3646    0.0000 O   0  0  0  0  0  0  0  0  0  0  0  0
    3.3523    1.3646    0.0000 O   0  0  0  0  0  0  0  0  0  0  0  0
    3.3523   -0.2854    0.0000 C   0  0  0  0  0  0  0  0  0  0  0  0
    3.3523   -1.1104    0.0000 C   0  0  0  0  0  0  0  0  0  0  0  0
    4.0668   -1.5229    0.0000 C   0  0  0  0  0  0  0  0  0  0  0  0
    2.6378   -1.5229    0.0000 C   0  0  0  0  0  0  0  0  0  0  0  0
    1.9233   -1.1104    0.0000 C   0  0  0  0  0  0  0  0  0  0  0  0
    1.1387   -1.3654    0.0000 N   0  0  0  0  0  0  0  0  0  0  0  0
   -0.5837   -1.4124    0.0000 C   0  0  0  0  0  0  0  0  0  0  0  0
   -1.4087   -1.4124    0.0000 C   0  0  0  0  0  0  0  0  0  0  0  0
   -3.0587   -1.4124    0.0000 C   0  0  0  0  0  0  0  0  0  0  0  0
   -3.8837   -1.4124    0.0000 C   0  0  0  0  0  0  0  0  0  0  0  0
   -6.7712   -2.1269    0.0000 C   0  0  0  0  0  0  0  0  0  0  0  0
   -7.5962   -2.1269    0.0000 C   0  0  0  0  0  0  0  0  0  0  0  0
  1  2  1  0  0  0  0
  2  3  2  0  0  0  0
  2  4  1  0  0  0  0
  4  5  1  0  0  0  0
  5  6  4  0  0  0  0
  6  7  4  0  0  0  0
  7  8  4  0  0  0  0
  8  9  1  0  0  0  0
  9 10  1  0  0  0  0
 10 11  1  0  0  0  0
 11 12  4  0  0  0  0
 12 13  4  0  0  0  0
 13 14  4  0  0  0  0
 14 15  1  0  0  0  0
 15 16  4  0  0  0  0
 16 17  4  0  0  0  0
 17 18  4  0  0  0  0
 18 19  1  0  0  0  0
 19 20  4  0  0  0  0
 20 21  4  0  0  0  0
 21 22  4  0  0  0  0
 22 23  1  0  0  0  0
 23 24  2  0  0  0  0
 23 25  1  0  0  0  0
 22 26  4  0  0  0  0
 26 27  4  0  0  0  0
 27 28  1  0  0  0  0
 27 29  4  0  0  0  0
 29 30  4  0  0  0  0
 21 30  4  0  0  0  0
 30 31  4  0  0  0  0
 19 31  4  0  0  0  0
 18 32  4  0  0  0  0
 32 33  4  0  0  0  0
 15 33  4  0  0  0  0
 14 34  4  0  0  0  0
 34 35  4  0  0  0  0
 11 35  4  0  0  0  0
  8 36  4  0  0  0  0
 36 37  4  0  0  0  0
  5 37  4  0  0  0  0
M  STY  1   1 DAT
M  SAL   1  1  31
M  SDT   1 MRV_IMPLICIT_H                                        
M  SDD   1     0.5304   -0.4125    DR    ALL  0       0  
M  SED   1 IMPL_H1
M  END
> <IC50(uM)>
0.013

> <Outcome>
1.0

> <BindingDB ID>
50358208

> <BindingDB MonomerID>
50096200

> <BindingDB Ligand Name>
CHEMBL3593806

> <Curation/DataSource>
ChEMBL

> <Article DOI>
10.1016/j.bmc.2015.05.051

> <PMID>
26088338

> <Patent Number>
?

> <Authors>
Abdullah, I; Chee, CF; Lee, YK; Thunuguntla, SS; Satish Reddy, K; Nellore, K; Antony, T; Verma, J; Mun, KW; Othman, S; Subramanya, H; Rahman, NA

> <Link to Ligand in BindingDB>
http://www.bindingdb.org/bind/chemsearch/marvin/MolStructure.jsp?monomerid=50096200

> <Link to Ligand-Target Pair in BindingDB>
http://www.bindingdb.org/jsp/dbsearch/PrimarySearch_ki.jsp?energyterm=kJ/mole&tag=r21&monomerid=50096200&enzyme=Dihydroorotate+dehydrogenase&column=ki&startPg=0&Increment=50&submit=Search

> <PubChem CID>
122182181

> <PubChem SID>
103993767

$$$$

  Mrv2115 07222212352D          

 36 40  0  0  0  0            999 V2000
    3.9934    2.4750    0.0000 O   0  0  0  0  0  0  0  0  0  0  0  0
    3.2789    2.0625    0.0000 C   0  0  0  0  0  0  0  0  0  0  0  0
    2.5645    2.4750    0.0000 O   0  0  0  0  0  0  0  0  0  0  0  0
    3.2789    1.2375    0.0000 C   0  0  0  0  0  0  0  0  0  0  0  0
    3.9934    0.8250    0.0000 C   0  0  0  0  0  0  0  0  0  0  0  0
    3.9934    0.0000    0.0000 C   0  0  0  0  0  0  0  0  0  0  0  0
    3.2789   -0.4125    0.0000 C   0  0  0  0  0  0  0  0  0  0  0  0
    2.5645    0.0000    0.0000 C   0  0  0  0  0  0  0  0  0  0  0  0
    1.7798   -0.2549    0.0000 N   0  0  0  0  0  0  0  0  0  0  0  0
    1.2949    0.4125    0.0000 C   0  0  0  0  0  0  0  0  0  0  0  0
    0.4699    0.4125    0.0000 C   0  0  0  0  0  0  0  0  0  0  0  0
    0.0574   -0.3020    0.0000 C   0  0  0  0  0  0  0  0  0  0  0  0
    0.4699   -1.0164    0.0000 F   0  0  0  0  0  0  0  0  0  0  0  0
   -0.7676   -0.3020    0.0000 C   0  0  0  0  0  0  0  0  0  0  0  0
   -1.1801   -1.0164    0.0000 F   0  0  0  0  0  0  0  0  0  0  0  0
   -1.1801    0.4125    0.0000 C   0  0  0  0  0  0  0  0  0  0  0  0
   -2.0051    0.4125    0.0000 C   0  0  0  0  0  0  0  0  0  0  0  0
   -2.4176   -0.3020    0.0000 C   0  0  0  0  0  0  0  0  0  0  0  0
   -3.2426   -0.3020    0.0000 C   0  0  0  0  0  0  0  0  0  0  0  0
   -3.6551    0.4125    0.0000 C   0  0  0  0  0  0  0  0  0  0  0  0
   -4.4801    0.4125    0.0000 O   0  0  0  0  0  0  0  0  0  0  0  0
   -4.8926   -0.3020    0.0000 C   0  0  0  0  0  0  0  0  0  0  0  0
   -5.7176   -0.3020    0.0000 C   0  0  0  0  0  0  0  0  0  0  0  0
   -6.1301   -1.0164    0.0000 C   0  0  0  0  0  0  0  0  0  0  0  0
   -6.9551   -1.0164    0.0000 C   0  0  0  0  0  0  0  0  0  0  0  0
   -7.3676   -0.3020    0.0000 C   0  0  0  0  0  0  0  0  0  0  0  0
   -6.9551    0.4125    0.0000 C   0  0  0  0  0  0  0  0  0  0  0  0
   -6.1301    0.4125    0.0000 C   0  0  0  0  0  0  0  0  0  0  0  0
   -3.2426    1.1270    0.0000 C   0  0  0  0  0  0  0  0  0  0  0  0
   -2.4176    1.1270    0.0000 C   0  0  0  0  0  0  0  0  0  0  0  0
   -0.7676    1.1270    0.0000 C   0  0  0  0  0  0  0  0  0  0  0  0
   -1.1801    1.8414    0.0000 F   0  0  0  0  0  0  0  0  0  0  0  0
    0.0574    1.1270    0.0000 C   0  0  0  0  0  0  0  0  0  0  0  0
    0.4699    1.8414    0.0000 F   0  0  0  0  0  0  0  0  0  0  0  0
    1.7798    1.0799    0.0000 N   0  0  0  0  0  0  0  0  0  0  0  0
    2.5645    0.8250    0.0000 C   0  0  0  0  0  0  0  0  0  0  0  0
  1  2  2  0  0  0  0
  2  3  1  0  0  0  0
  2  4  1  0  0  0  0
  4  5  4  0  0  0  0
  5  6  4  0  0  0  0
  6  7  4  0  0  0  0
  7  8  4  0  0  0  0
  8  9  4  0  0  0  0
  9 10  4  0  0  0  0
 10 11  1  0  0  0  0
 11 12  4  0  0  0  0
 12 13  1  0  0  0  0
 12 14  4  0  0  0  0
 14 15  1  0  0  0  0
 14 16  4  0  0  0  0
 16 17  1  0  0  0  0
 17 18  4  0  0  0  0
 18 19  4  0  0  0  0
 19 20  4  0  0  0  0
 20 21  1  0  0  0  0
 21 22  1  0  0  0  0
 22 23  1  0  0  0  0
 23 24  4  0  0  0  0
 24 25  4  0  0  0  0
 25 26  4  0  0  0  0
 26 27  4  0  0  0  0
 27 28  4  0  0  0  0
 23 28  4  0  0  0  0
 20 29  4  0  0  0  0
 29 30  4  0  0  0  0
 17 30  4  0  0  0  0
 16 31  4  0  0  0  0
 31 32  1  0  0  0  0
 31 33  4  0  0  0  0
 11 33  4  0  0  0  0
 33 34  1  0  0  0  0
 10 35  4  0  0  0  0
 35 36  4  0  0  0  0
  4 36  4  0  0  0  0
  8 36  4  0  0  0  0
M  STY  1   1 DAT
M  SAL   1  1   9
M  SDT   1 MRV_IMPLICIT_H                                        
M  SDD   1     0.5304   -0.4125    DR    ALL  0       0  
M  SED   1 IMPL_H1
M  END
> <IC50(uM)>
0.378

> <Outcome>
1.0

> <BindingDB ID>
297834

> <BindingDB MonomerID>
155490

> <BindingDB Ligand Name>
US9006454, I132

> <Curation/DataSource>
US Patent

> <Article DOI>
?

> <PMID>
?

> <Patent Number>
US9006454

> <Authors>
Thunuguntla, SS; Subramanya, H; Kunnam, SR; Sanivaru Vijay, SR; Bingi, C; Kusanur, R; Schwarz, M; Arlt, M

> <Link to Ligand in BindingDB>
http://www.bindingdb.org/bind/chemsearch/marvin/MolStructure.jsp?monomerid=155490

> <Link to Ligand-Target Pair in BindingDB>
http://www.bindingdb.org/jsp/dbsearch/PrimarySearch_ki.jsp?energyterm=kJ/mole&tag=r21&monomerid=155490&enzyme=Dihydroorotate+dehydrogenase&column=ki&startPg=0&Increment=50&submit=Search

> <PubChem CID>
58073858

> <PubChem SID>
253658427

$$$$

  Mrv2115 07222212352D          

 36 38  0  0  0  0            999 V2000
    4.2868   -2.4750    0.0000 C   0  0  0  0  0  0  0  0  0  0  0  0
    3.5724   -2.8875    0.0000 C   0  0  0  0  0  0  0  0  0  0  0  0
    2.8579   -2.4750    0.0000 O   0  0  0  0  0  0  0  0  0  0  0  0
    2.1434   -2.8875    0.0000 C   0  0  0  0  0  0  0  0  0  0  0  0
    2.1434   -3.7125    0.0000 C   0  0  0  0  0  0  0  0  0  0  0  0
    1.4289   -4.1250    0.0000 C   0  0  0  0  0  0  0  0  0  0  0  0
    1.4289   -4.9500    0.0000 N   0  0  0  0  0  0  0  0  0  0  0  0
    2.0964   -5.4349    0.0000 N   0  0  0  0  0  0  0  0  0  0  0  0
    1.8414   -6.2195    0.0000 C   0  0  0  0  0  0  0  0  0  0  0  0
    2.3264   -6.8870    0.0000 C   0  0  0  0  0  0  0  0  0  0  0  0
    2.8113   -7.5544    0.0000 C   0  0  0  0  0  0  0  0  0  0  0  0
    2.9938   -6.4021    0.0000 C   0  0  0  0  0  0  0  0  0  0  0  0
    1.6589   -7.3719    0.0000 C   0  0  0  0  0  0  0  0  0  0  0  0
    1.0164   -6.2195    0.0000 N   0  0  0  0  0  0  0  0  0  0  0  0
    0.5315   -6.8870    0.0000 C   0  0  0  0  0  0  0  0  0  0  0  0
    0.7615   -5.4349    0.0000 C   0  0  0  0  0  0  0  0  0  0  0  0
   -0.0231   -5.1800    0.0000 O   0  0  0  0  0  0  0  0  0  0  0  0
    0.7145   -3.7125    0.0000 C   0  0  0  0  0  0  0  0  0  0  0  0
    0.0000   -4.1250    0.0000 F   0  0  0  0  0  0  0  0  0  0  0  0
    0.7145   -2.8875    0.0000 C   0  0  0  0  0  0  0  0  0  0  0  0
    1.4289   -2.4750    0.0000 C   0  0  0  0  0  0  0  0  0  0  0  0
    1.4289   -1.6500    0.0000 C   0  0  0  0  0  0  0  0  0  0  0  0
    2.1434   -1.2375    0.0000 O   0  0  0  0  0  0  0  0  0  0  0  0
    0.7145   -1.2375    0.0000 N   0  0  0  0  0  0  0  0  0  0  0  0
    0.7145   -0.4125    0.0000 C   0  0  0  0  0  0  0  0  0  0  0  0
    0.0000    0.0000    0.0000 C   0  0  0  0  0  0  0  0  0  0  0  0
   -0.7145   -0.4125    0.0000 F   0  0  0  0  0  0  0  0  0  0  0  0
    0.0000    0.8250    0.0000 C   0  0  0  0  0  0  0  0  0  0  0  0
    0.7145    1.2375    0.0000 C   0  0  0  0  0  0  0  0  0  0  0  0
    1.4289    0.8250    0.0000 C   0  0  0  0  0  0  0  0  0  0  0  0
    1.4289    0.0000    0.0000 C   0  0  0  0  0  0  0  0  0  0  0  0
    2.1434   -0.4125    0.0000 F   0  0  0  0  0  0  0  0  0  0  0  0
    3.5724   -3.7125    0.0000 C   0  0  0  0  0  0  0  0  0  0  0  0
    2.7474   -3.7125    0.0000 F   0  0  0  0  0  0  0  0  0  0  0  0
    4.3974   -3.7125    0.0000 F   0  0  0  0  0  0  0  0  0  0  0  0
    3.5724   -4.5375    0.0000 F   0  0  0  0  0  0  0  0  0  0  0  0
  1  2  1  0  0  0  0
  2  3  1  0  0  0  0
  3  4  1  0  0  0  0
  4  5  4  0  0  0  0
  5  6  4  0  0  0  0
  6  7  1  0  0  0  0
  7  8  4  0  0  0  0
  8  9  4  0  0  0  0
  9 10  1  0  0  0  0
 10 11  1  0  0  0  0
 10 12  1  0  0  0  0
 10 13  1  0  0  0  0
  9 14  4  0  0  0  0
 14 15  1  0  0  0  0
 14 16  4  0  0  0  0
  7 16  4  0  0  0  0
 16 17  2  0  0  0  0
  6 18  4  0  0  0  0
 18 19  1  0  0  0  0
 18 20  4  0  0  0  0
 20 21  4  0  0  0  0
  4 21  4  0  0  0  0
 21 22  1  0  0  0  0
 22 23  2  0  0  0  0
 22 24  1  0  0  0  0
 24 25  1  0  0  0  0
 25 26  4  0  0  0  0
 26 27  1  0  0  0  0
 26 28  4  0  0  0  0
 28 29  4  0  0  0  0
 29 30  4  0  0  0  0
 30 31  4  0  0  0  0
 25 31  4  0  0  0  0
 31 32  1  0  0  0  0
  2 33  1  0  0  0  0
 33 34  1  0  0  0  0
 33 35  1  0  0  0  0
 33 36  1  0  0  0  0
M  END
> <IC50(uM)>
0.9

> <Outcome>
1.0

> <BindingDB ID>
1098714; 972560

> <BindingDB MonomerID>
470434

> <BindingDB Ligand Name>
4-(3-tert-butyl-4-methyl-5-oxo-4,5-dihydro-1H-1,2,4-triazol-1-yl)-N-(2,6-difluorophenyl)-5-fluoro-2-{[(2S)-1,1,1-trifluoropropan-2-yl]oxy}benzamide::US10815215, Example 102::US11130745, Example 102; 4-(3-tert-butyl-4-methyl-5-oxo-4,5-dihydro-1H-1,2,4-triazol-1-yl)-N-(2,6-difluorophenyl)-5-fluoro-2-{[(2S)-1,1,1-trifluoropropan-2-yl]oxy}benzamide::US10815215, Example 102

> <Curation/DataSource>
US Patent

> <Article DOI>
?

> <PMID>
?

> <Patent Number>
US11130745; US10815215

> <Authors>
Gradl, SN; Nguyen, D; Eis, K; Gunther, J; Stellfeld, T; Janzer, A; Christian, S; Muller, T; Sheikh, SE; Sykes, DB; Ferrara, SJ; Krober, M; Merz, C; Niehues, M; Schafer, M; Zimmermann, K; Nising, CF; Gradl, SN; Nguyen, D; Eis, K; Gunther, J; Stellfeld, T; Janzer, A; Christian, S; Muller, T; Sheikh, SE; Zhou, HJ; Zhao, C; Sykes, DB; Ferrara, SJ; Liu, K; Krober, M; Merz, C; Niehues, M; Schafer, M; Zimmermann, K; Nising, CF

> <Link to Ligand in BindingDB>
http://www.bindingdb.org/bind/chemsearch/marvin/MolStructure.jsp?monomerid=470434

> <Link to Ligand-Target Pair in BindingDB>
http://www.bindingdb.org/jsp/dbsearch/PrimarySearch_ki.jsp?energyterm=kJ/mole&tag=r21&monomerid=470434&enzyme=Dihydroorotate+dehydrogenase&column=ki&startPg=0&Increment=50&submit=Search

> <PubChem CID>
134470384

> <PubChem SID>
441609611

$$$$

  Mrv2115 07222212352D          

 30 33  0  0  0  0            999 V2000
   -0.1712   -0.6979    0.0000 C   0  0  0  0  0  0  0  0  0  0  0  0
    0.6538   -0.6979    0.0000 C   0  0  0  0  0  0  0  0  0  0  0  0
    1.1387   -0.0305    0.0000 N   0  0  0  0  0  0  0  0  0  0  0  0
    1.9233   -0.2854    0.0000 C   0  0  0  0  0  0  0  0  0  0  0  0
    2.6378    0.1271    0.0000 C   0  0  0  0  0  0  0  0  0  0  0  0
    2.6378    0.9521    0.0000 C   0  0  0  0  0  0  0  0  0  0  0  0
    3.3523    1.3646    0.0000 O   0  0  0  0  0  0  0  0  0  0  0  0
    1.9233    1.3646    0.0000 O   0  0  0  0  0  0  0  0  0  0  0  0
    3.3523   -0.2854    0.0000 C   0  0  0  0  0  0  0  0  0  0  0  0
    3.3523   -1.1104    0.0000 C   0  0  0  0  0  0  0  0  0  0  0  0
    4.0668   -1.5229    0.0000 C   0  0  0  0  0  0  0  0  0  0  0  0
    4.7812   -1.1104    0.0000 C   0  0  0  0  0  0  0  0  0  0  0  0
    4.7812   -0.2854    0.0000 F   0  0  0  0  0  0  0  0  0  0  0  0
    5.4957   -1.5229    0.0000 C   0  0  0  0  0  0  0  0  0  0  0  0
    6.2102   -1.1104    0.0000 F   0  0  0  0  0  0  0  0  0  0  0  0
    5.4957   -2.3479    0.0000 C   0  0  0  0  0  0  0  0  0  0  0  0
    6.2102   -2.7604    0.0000 N   0  0  0  0  0  0  0  0  0  0  0  0
    6.9638   -2.4249    0.0000 C   0  0  0  0  0  0  0  0  0  0  0  0
    7.1354   -1.6179    0.0000 C   0  0  0  0  0  0  0  0  0  0  0  0
    7.5159   -3.0380    0.0000 C   0  0  0  0  0  0  0  0  0  0  0  0
    7.1034   -3.7525    0.0000 C   0  0  0  0  0  0  0  0  0  0  0  0
    6.2964   -3.5809    0.0000 C   0  0  0  0  0  0  0  0  0  0  0  0
    5.6833   -4.1330    0.0000 C   0  0  0  0  0  0  0  0  0  0  0  0
    4.7812   -2.7604    0.0000 C   0  0  0  0  0  0  0  0  0  0  0  0
    4.7812   -3.5854    0.0000 F   0  0  0  0  0  0  0  0  0  0  0  0
    4.0668   -2.3479    0.0000 C   0  0  0  0  0  0  0  0  0  0  0  0
    3.3523   -2.7604    0.0000 F   0  0  0  0  0  0  0  0  0  0  0  0
    2.6378   -1.5229    0.0000 C   0  0  0  0  0  0  0  0  0  0  0  0
    1.9233   -1.1104    0.0000 C   0  0  0  0  0  0  0  0  0  0  0  0
    1.1387   -1.3654    0.0000 N   0  0  0  0  0  0  0  0  0  0  0  0
  1  2  1  0  0  0  0
  2  3  4  0  0  0  0
  3  4  4  0  0  0  0
  4  5  4  0  0  0  0
  5  6  1  0  0  0  0
  6  7  2  0  0  0  0
  6  8  1  0  0  0  0
  5  9  4  0  0  0  0
  9 10  4  0  0  0  0
 10 11  1  0  0  0  0
 11 12  4  0  0  0  0
 12 13  1  0  0  0  0
 12 14  4  0  0  0  0
 14 15  1  0  0  0  0
 14 16  4  0  0  0  0
 16 17  1  0  0  0  0
 17 18  4  0  0  0  0
 18 19  1  0  0  0  0
 18 20  4  0  0  0  0
 20 21  4  0  0  0  0
 21 22  4  0  0  0  0
 17 22  4  0  0  0  0
 22 23  1  0  0  0  0
 16 24  4  0  0  0  0
 24 25  1  0  0  0  0
 24 26  4  0  0  0  0
 11 26  4  0  0  0  0
 26 27  1  0  0  0  0
 10 28  4  0  0  0  0
 28 29  4  0  0  0  0
  4 29  4  0  0  0  0
 29 30  4  0  0  0  0
  2 30  4  0  0  0  0
M  STY  1   1 DAT
M  SAL   1  1  30
M  SDT   1 MRV_IMPLICIT_H                                        
M  SDD   1     0.5304   -0.4125    DR    ALL  0       0  
M  SED   1 IMPL_H1
M  END
> <IC50(uM)>
0.0055

> <Outcome>
1.0

> <BindingDB ID>
1045609

> <BindingDB MonomerID>
501667

> <BindingDB Ligand Name>
US11028054, Example 67

> <Curation/DataSource>
US Patent

> <Article DOI>
?

> <PMID>
?

> <Patent Number>
US11028054

> <Authors>
Thunuguntla, SS; Hosahalli, S; Panigrahi, SK; Schwarz, M; Arit, M

> <Link to Ligand in BindingDB>
http://www.bindingdb.org/bind/chemsearch/marvin/MolStructure.jsp?monomerid=501667

> <Link to Ligand-Target Pair in BindingDB>
http://www.bindingdb.org/jsp/dbsearch/PrimarySearch_ki.jsp?energyterm=kJ/mole&tag=r21&monomerid=501667&enzyme=Dihydroorotate+dehydrogenase&column=ki&startPg=0&Increment=50&submit=Search

> <PubChem CID>
?

> <PubChem SID>
?

$$$$

  Mrv2115 07222212352D          

 29 33  0  0  0  0            999 V2000
    0.9571   -4.6288    0.0000 C   0  0  0  0  0  0  0  0  0  0  0  0
    1.2121   -3.8442    0.0000 C   0  0  0  0  0  0  0  0  0  0  0  0
    0.7272   -3.1768    0.0000 C   0  0  0  0  0  0  0  0  0  0  0  0
   -0.0978   -3.1768    0.0000 C   0  0  0  0  0  0  0  0  0  0  0  0
   -0.5103   -2.4623    0.0000 O   0  0  0  0  0  0  0  0  0  0  0  0
   -0.5103   -3.8913    0.0000 N   0  0  0  0  0  0  0  0  0  0  0  0
   -1.3353   -3.8913    0.0000 C   0  0  0  0  0  0  0  0  0  0  0  0
   -1.7478   -4.6057    0.0000 C   0  0  0  0  0  0  0  0  0  0  0  0
   -2.5728   -4.6057    0.0000 C   0  0  0  0  0  0  0  0  0  0  0  0
   -2.9853   -3.8913    0.0000 C   0  0  0  0  0  0  0  0  0  0  0  0
   -2.5728   -3.1768    0.0000 C   0  0  0  0  0  0  0  0  0  0  0  0
   -1.7478   -3.1768    0.0000 C   0  0  0  0  0  0  0  0  0  0  0  0
   -1.4929   -2.3922    0.0000 C   0  0  0  0  0  0  0  0  0  0  0  0
   -2.1603   -1.9072    0.0000 N   0  0  0  0  0  0  0  0  0  0  0  0
   -2.8278   -2.3922    0.0000 N   0  0  0  0  0  0  0  0  0  0  0  0
   -3.6124   -2.1372    0.0000 C   0  0  0  0  0  0  0  0  0  0  0  0
   -4.2255   -2.6893    0.0000 C   0  0  0  0  0  0  0  0  0  0  0  0
   -5.0101   -2.4343    0.0000 C   0  0  0  0  0  0  0  0  0  0  0  0
   -5.1816   -1.6273    0.0000 C   0  0  0  0  0  0  0  0  0  0  0  0
   -4.5686   -1.0753    0.0000 C   0  0  0  0  0  0  0  0  0  0  0  0
   -3.7839   -1.3303    0.0000 C   0  0  0  0  0  0  0  0  0  0  0  0
   -3.1708   -0.7782    0.0000 C   0  0  0  0  0  0  0  0  0  0  0  0
    1.2121   -2.5093    0.0000 O   0  0  0  0  0  0  0  0  0  0  0  0
    1.9967   -2.7643    0.0000 C   0  0  0  0  0  0  0  0  0  0  0  0
    2.7112   -2.3518    0.0000 C   0  0  0  0  0  0  0  0  0  0  0  0
    3.4256   -2.7643    0.0000 C   0  0  0  0  0  0  0  0  0  0  0  0
    3.4256   -3.5893    0.0000 C   0  0  0  0  0  0  0  0  0  0  0  0
    2.7112   -4.0018    0.0000 C   0  0  0  0  0  0  0  0  0  0  0  0
    1.9967   -3.5893    0.0000 C   0  0  0  0  0  0  0  0  0  0  0  0
  1  2  1  0  0  0  0
  2  3  2  0  0  0  0
  3  4  1  0  0  0  0
  4  5  2  0  0  0  0
  4  6  1  0  0  0  0
  6  7  1  0  0  0  0
  7  8  1  0  0  0  0
  8  9  1  0  0  0  0
  9 10  1  0  0  0  0
 10 11  1  0  0  0  0
 11 12  4  0  0  0  0
  7 12  1  0  0  0  0
 12 13  4  0  0  0  0
 13 14  4  0  0  0  0
 14 15  4  0  0  0  0
 11 15  4  0  0  0  0
 15 16  1  0  0  0  0
 16 17  4  0  0  0  0
 17 18  4  0  0  0  0
 18 19  4  0  0  0  0
 19 20  4  0  0  0  0
 20 21  4  0  0  0  0
 16 21  4  0  0  0  0
 21 22  1  0  0  0  0
  3 23  1  0  0  0  0
 23 24  1  0  0  0  0
 24 25  1  0  0  0  0
 25 26  2  0  0  0  0
 26 27  1  0  0  0  0
 27 28  2  0  0  0  0
 28 29  1  0  0  0  0
  2 29  1  0  0  0  0
 24 29  1  0  0  0  0
M  END
> <IC50(uM)>
0.459

> <Outcome>
1.0

> <BindingDB ID>
993086

> <BindingDB MonomerID>
477588

> <BindingDB Ligand Name>
3-methyl-N-[(4R)-1-(2-methylphenyl)-4,5,6,7-tetrahydro-1H-indazol-4-yl]-1-benzofuran-2-carboxamide::US10889564, Example 18

> <Curation/DataSource>
US Patent

> <Article DOI>
?

> <PMID>
?

> <Patent Number>
US10889564

> <Authors>
Lain, S; Drummond, C; Leeuwen, IV; Haraldsson, M; Johansson, L; Sandberg, L; Yngve, U

> <Link to Ligand in BindingDB>
http://www.bindingdb.org/bind/chemsearch/marvin/MolStructure.jsp?monomerid=477588

> <Link to Ligand-Target Pair in BindingDB>
http://www.bindingdb.org/jsp/dbsearch/PrimarySearch_ki.jsp?energyterm=kJ/mole&tag=r21&monomerid=477588&enzyme=Dihydroorotate+dehydrogenase&column=ki&startPg=0&Increment=50&submit=Search

> <PubChem CID>
138646587

> <PubChem SID>
442137205

$$$$

  Mrv2115 07222212352D          

 35 37  0  0  0  0            999 V2000
    2.1434   -3.7125    0.0000 C   0  0  0  0  0  0  0  0  0  0  0  0
    1.4289   -4.1250    0.0000 C   0  0  0  0  0  0  0  0  0  0  0  0
    1.4289   -4.9500    0.0000 N   0  0  0  0  0  0  0  0  0  0  0  0
    0.7615   -5.4349    0.0000 C   0  0  0  0  0  0  0  0  0  0  0  0
   -0.0231   -5.1800    0.0000 C   0  0  0  0  0  0  0  0  0  0  0  0
   -0.1946   -4.3730    0.0000 O   0  0  0  0  0  0  0  0  0  0  0  0
    1.0164   -6.2195    0.0000 N   0  0  0  0  0  0  0  0  0  0  0  0
    1.8414   -6.2195    0.0000 N   0  0  0  0  0  0  0  0  0  0  0  0
    2.3264   -6.8870    0.0000 C   0  0  0  0  0  0  0  0  0  0  0  0
    3.1468   -6.8007    0.0000 C   0  0  0  0  0  0  0  0  0  0  0  0
    3.6318   -7.4682    0.0000 C   0  0  0  0  0  0  0  0  0  0  0  0
    4.4522   -7.3820    0.0000 O   0  0  0  0  0  0  0  0  0  0  0  0
    4.7878   -6.6283    0.0000 C   0  0  0  0  0  0  0  0  0  0  0  0
    4.3029   -5.9608    0.0000 C   0  0  0  0  0  0  0  0  0  0  0  0
    5.6083   -6.5420    0.0000 C   0  0  0  0  0  0  0  0  0  0  0  0
    5.6945   -7.3625    0.0000 F   0  0  0  0  0  0  0  0  0  0  0  0
    5.5221   -5.7216    0.0000 F   0  0  0  0  0  0  0  0  0  0  0  0
    6.4288   -6.4558    0.0000 F   0  0  0  0  0  0  0  0  0  0  0  0
    3.2962   -8.2219    0.0000 C   0  0  0  0  0  0  0  0  0  0  0  0
    3.7811   -8.8893    0.0000 C   0  0  0  0  0  0  0  0  0  0  0  0
    3.4456   -9.6430    0.0000 O   0  0  0  0  0  0  0  0  0  0  0  0
    4.6016   -8.8031    0.0000 N   0  0  0  0  0  0  0  0  0  0  0  0
    5.0865   -9.4705    0.0000 C   0  0  0  0  0  0  0  0  0  0  0  0
    5.9070   -9.3843    0.0000 C   0  0  0  0  0  0  0  0  0  0  0  0
    6.2426   -8.6306    0.0000 C   0  0  0  0  0  0  0  0  0  0  0  0
    6.3919  -10.0517    0.0000 C   0  0  0  0  0  0  0  0  0  0  0  0
    6.0564  -10.8054    0.0000 C   0  0  0  0  0  0  0  0  0  0  0  0
    5.2359  -10.8916    0.0000 C   0  0  0  0  0  0  0  0  0  0  0  0
    4.7510  -10.2242    0.0000 C   0  0  0  0  0  0  0  0  0  0  0  0
    3.9305  -10.3104    0.0000 F   0  0  0  0  0  0  0  0  0  0  0  0
    2.4757   -8.3081    0.0000 C   0  0  0  0  0  0  0  0  0  0  0  0
    1.9908   -7.6407    0.0000 C   0  0  0  0  0  0  0  0  0  0  0  0
    1.1703   -7.7269    0.0000 F   0  0  0  0  0  0  0  0  0  0  0  0
    2.0964   -5.4349    0.0000 C   0  0  0  0  0  0  0  0  0  0  0  0
    2.8810   -5.1800    0.0000 O   0  0  0  0  0  0  0  0  0  0  0  0
  1  2  1  0  0  0  0
  2  3  1  0  0  0  0
  3  4  4  0  0  0  0
  4  5  1  0  0  0  0
  5  6  1  0  0  0  0
  4  7  4  0  0  0  0
  7  8  4  0  0  0  0
  8  9  1  0  0  0  0
  9 10  4  0  0  0  0
 10 11  4  0  0  0  0
 11 12  1  0  0  0  0
 12 13  1  0  0  0  0
 13 14  1  0  0  0  0
 13 15  1  0  0  0  0
 15 16  1  0  0  0  0
 15 17  1  0  0  0  0
 15 18  1  0  0  0  0
 11 19  4  0  0  0  0
 19 20  1  0  0  0  0
 20 21  2  0  0  0  0
 20 22  1  0  0  0  0
 22 23  1  0  0  0  0
 23 24  4  0  0  0  0
 24 25  1  0  0  0  0
 24 26  4  0  0  0  0
 26 27  4  0  0  0  0
 27 28  4  0  0  0  0
 28 29  4  0  0  0  0
 23 29  4  0  0  0  0
 29 30  1  0  0  0  0
 19 31  4  0  0  0  0
 31 32  4  0  0  0  0
  9 32  4  0  0  0  0
 32 33  1  0  0  0  0
  8 34  4  0  0  0  0
  3 34  4  0  0  0  0
 34 35  2  0  0  0  0
M  END
> <IC50(uM)>
0.0045

> <Outcome>
1.0

> <BindingDB ID>
1098740; 972586

> <BindingDB MonomerID>
470462

> <BindingDB Ligand Name>
4-[4-ethyl-3-(hydroxymethyl)-5-oxo-4,5-dihydro-1H-1,2,4-triazol-1-yl]-5-fluoro-N-(2-fluoro-6-methylphenyl)-2-{[(2S)-1,1,1-trifluoropropan-2-yl]oxy}benzamide::US10815215, Example 128::US11130745, Example 128; 4-[4-ethyl-3-(hydroxymethyl)-5-oxo-4,5-dihydro-1H-1,2,4-triazol-1-yl]-5-fluoro-N-(2-fluoro-6-methylphenyl)-2-{[(2S)-1,1,1-trifluoropropan-2-yl]oxy}benzamide::US10815215, Example 128

> <Curation/DataSource>
US Patent

> <Article DOI>
?

> <PMID>
?

> <Patent Number>
US11130745; US10815215

> <Authors>
Gradl, SN; Nguyen, D; Eis, K; Gunther, J; Stellfeld, T; Janzer, A; Christian, S; Muller, T; Sheikh, SE; Sykes, DB; Ferrara, SJ; Krober, M; Merz, C; Niehues, M; Schafer, M; Zimmermann, K; Nising, CF; Gradl, SN; Nguyen, D; Eis, K; Gunther, J; Stellfeld, T; Janzer, A; Christian, S; Muller, T; Sheikh, SE; Zhou, HJ; Zhao, C; Sykes, DB; Ferrara, SJ; Liu, K; Krober, M; Merz, C; Niehues, M; Schafer, M; Zimmermann, K; Nising, CF

> <Link to Ligand in BindingDB>
http://www.bindingdb.org/bind/chemsearch/marvin/MolStructure.jsp?monomerid=470462

> <Link to Ligand-Target Pair in BindingDB>
http://www.bindingdb.org/jsp/dbsearch/PrimarySearch_ki.jsp?energyterm=kJ/mole&tag=r21&monomerid=470462&enzyme=Dihydroorotate+dehydrogenase&column=ki&startPg=0&Increment=50&submit=Search

> <PubChem CID>
134469897

> <PubChem SID>
441609639

$$$$

  Mrv2115 07222212352D          

 24 26  0  0  0  0            999 V2000
    0.1902   -3.8567    0.0000 C   0  0  0  0  0  0  0  0  0  0  0  0
    0.3617   -3.0498    0.0000 C   0  0  0  0  0  0  0  0  0  0  0  0
   -0.1903   -2.4367    0.0000 C   0  0  0  0  0  0  0  0  0  0  0  0
   -1.0108   -2.5229    0.0000 C   0  0  0  0  0  0  0  0  0  0  0  0
   -1.4957   -1.8555    0.0000 C   0  0  0  0  0  0  0  0  0  0  0  0
   -2.3162   -1.9417    0.0000 C   0  0  0  0  0  0  0  0  0  0  0  0
   -2.8011   -1.2743    0.0000 C   0  0  0  0  0  0  0  0  0  0  0  0
   -2.4655   -0.5206    0.0000 C   0  0  0  0  0  0  0  0  0  0  0  0
   -2.9505    0.1468    0.0000 C   0  0  0  0  0  0  0  0  0  0  0  0
   -3.4354    0.8143    0.0000 F   0  0  0  0  0  0  0  0  0  0  0  0
   -3.6179   -0.3381    0.0000 F   0  0  0  0  0  0  0  0  0  0  0  0
   -2.2830    0.6318    0.0000 F   0  0  0  0  0  0  0  0  0  0  0  0
   -1.6451   -0.4344    0.0000 N   0  0  0  0  0  0  0  0  0  0  0  0
   -1.1601   -1.1018    0.0000 C   0  0  0  0  0  0  0  0  0  0  0  0
    0.2222   -1.7222    0.0000 C   0  0  0  0  0  0  0  0  0  0  0  0
    1.0292   -1.8937    0.0000 N   0  0  0  0  0  0  0  0  0  0  0  0
    1.1154   -2.7142    0.0000 C   0  0  0  0  0  0  0  0  0  0  0  0
    1.8299   -3.1267    0.0000 C   0  0  0  0  0  0  0  0  0  0  0  0
    2.5444   -2.7142    0.0000 O   0  0  0  0  0  0  0  0  0  0  0  0
    1.8299   -3.9517    0.0000 N   0  0  0  0  0  0  0  0  0  0  0  0
    2.4133   -4.5351    0.0000 C   0  0  0  0  0  0  0  0  0  0  0  0
    1.8299   -5.1184    0.0000 C   0  0  0  0  0  0  0  0  0  0  0  0
    1.8299   -5.9434    0.0000 F   0  0  0  0  0  0  0  0  0  0  0  0
    1.2465   -4.5351    0.0000 C   0  0  0  0  0  0  0  0  0  0  0  0
  1  2  1  0  0  0  0
  2  3  4  0  0  0  0
  3  4  1  0  0  0  0
  4  5  1  0  0  0  0
  5  6  4  0  0  0  0
  6  7  4  0  0  0  0
  7  8  4  0  0  0  0
  8  9  1  0  0  0  0
  9 10  1  0  0  0  0
  9 11  1  0  0  0  0
  9 12  1  0  0  0  0
  8 13  4  0  0  0  0
 13 14  4  0  0  0  0
  5 14  4  0  0  0  0
  3 15  4  0  0  0  0
 15 16  4  0  0  0  0
 16 17  4  0  0  0  0
  2 17  4  0  0  0  0
 17 18  1  0  0  0  0
 18 19  2  0  0  0  0
 18 20  1  0  0  0  0
 20 21  1  0  0  0  0
 21 22  1  0  0  0  0
 22 23  1  0  0  0  0
 22 24  1  0  0  0  0
 20 24  1  0  0  0  0
M  STY  1   1 DAT
M  SAL   1  1  16
M  SDT   1 MRV_IMPLICIT_H                                        
M  SDD   1     0.5304   -0.4125    DR    ALL  0       0  
M  SED   1 IMPL_H1
M  END
> <IC50(uM)>
100.0

> <Outcome>
0.0

> <BindingDB ID>
51330104

> <BindingDB MonomerID>
50538352

> <BindingDB Ligand Name>
CHEMBL4636157

> <Curation/DataSource>
ChEMBL

> <Article DOI>
10.1021/acs.jmedchem.0c00311

> <PMID>
32248693

> <Patent Number>
?

> <Authors>
Kokkonda, S; Deng, X; White, KL; El Mazouni, F; White, J; Shackleford, DM; Katneni, K; Chiu, FCK; Barker, H; McLaren, J; Crighton, E; Chen, G; Angulo-Barturen, I; Jimenez-Diaz, MB; Ferrer, S; Huertas-Valentin, L; Martinez-Martinez, MS; Lafuente-Monasterio, MJ; Chittimalla, R; Shahi, SP; Wittlin, S; Waterson, D; Burrows, JN; Matthews, D; Tomchick, D; Rathod, PK; Palmer, MJ; Charman, SA; Phillips, MA

> <Link to Ligand in BindingDB>
http://www.bindingdb.org/bind/chemsearch/marvin/MolStructure.jsp?monomerid=50538352

> <Link to Ligand-Target Pair in BindingDB>
http://www.bindingdb.org/jsp/dbsearch/PrimarySearch_ki.jsp?energyterm=kJ/mole&tag=r21&monomerid=50538352&enzyme=Dihydroorotate+dehydrogenase&column=ki&startPg=0&Increment=50&submit=Search

> <PubChem CID>
156013729

> <PubChem SID>
442139915

$$$$

  Mrv2115 07222212352D          

 34 36  0  0  0  0            999 V2000
    0.0000   -4.1250    0.0000 C   0  0  0  0  0  0  0  0  0  0  0  0
    0.0000   -4.9500    0.0000 C   0  0  0  0  0  0  0  0  0  0  0  0
   -0.6674   -5.4349    0.0000 C   0  0  0  0  0  0  0  0  0  0  0  0
   -0.4125   -6.2195    0.0000 N   0  0  0  0  0  0  0  0  0  0  0  0
   -0.8974   -6.8870    0.0000 C   0  0  0  0  0  0  0  0  0  0  0  0
   -0.5619   -7.6407    0.0000 C   0  0  0  0  0  0  0  0  0  0  0  0
   -1.0468   -8.3081    0.0000 C   0  0  0  0  0  0  0  0  0  0  0  0
   -0.7112   -9.0618    0.0000 O   0  0  0  0  0  0  0  0  0  0  0  0
    0.1093   -9.1480    0.0000 C   0  0  0  0  0  0  0  0  0  0  0  0
    0.5942   -8.4806    0.0000 C   0  0  0  0  0  0  0  0  0  0  0  0
    0.4448   -9.9017    0.0000 C   0  0  0  0  0  0  0  0  0  0  0  0
   -0.3089  -10.2372    0.0000 F   0  0  0  0  0  0  0  0  0  0  0  0
    1.1985   -9.5661    0.0000 F   0  0  0  0  0  0  0  0  0  0  0  0
    0.7804  -10.6554    0.0000 F   0  0  0  0  0  0  0  0  0  0  0  0
   -1.8673   -8.2219    0.0000 C   0  0  0  0  0  0  0  0  0  0  0  0
   -2.3522   -8.8893    0.0000 C   0  0  0  0  0  0  0  0  0  0  0  0
   -2.0166   -9.6430    0.0000 O   0  0  0  0  0  0  0  0  0  0  0  0
   -3.1727   -8.8031    0.0000 N   0  0  0  0  0  0  0  0  0  0  0  0
   -3.6576   -9.4705    0.0000 C   0  0  0  0  0  0  0  0  0  0  0  0
   -3.3220  -10.2242    0.0000 C   0  0  0  0  0  0  0  0  0  0  0  0
   -2.5016  -10.3104    0.0000 F   0  0  0  0  0  0  0  0  0  0  0  0
   -3.8070  -10.8916    0.0000 C   0  0  0  0  0  0  0  0  0  0  0  0
   -4.6274  -10.8054    0.0000 C   0  0  0  0  0  0  0  0  0  0  0  0
   -4.9630  -10.0517    0.0000 C   0  0  0  0  0  0  0  0  0  0  0  0
   -4.4781   -9.3843    0.0000 C   0  0  0  0  0  0  0  0  0  0  0  0
   -4.8136   -8.6306    0.0000 Cl  0  0  0  0  0  0  0  0  0  0  0  0
   -2.2028   -7.4682    0.0000 C   0  0  0  0  0  0  0  0  0  0  0  0
   -1.7179   -6.8007    0.0000 C   0  0  0  0  0  0  0  0  0  0  0  0
   -2.0535   -6.0471    0.0000 F   0  0  0  0  0  0  0  0  0  0  0  0
    0.4125   -6.2195    0.0000 N   0  0  0  0  0  0  0  0  0  0  0  0
    0.6674   -5.4349    0.0000 C   0  0  0  0  0  0  0  0  0  0  0  0
    1.4521   -5.1800    0.0000 C   0  0  0  0  0  0  0  0  0  0  0  0
    1.6236   -4.3730    0.0000 C   0  0  0  0  0  0  0  0  0  0  0  0
    2.0652   -5.7320    0.0000 O   0  0  0  0  0  0  0  0  0  0  0  0
  1  2  1  0  0  0  0
  2  3  4  0  0  0  0
  3  4  4  0  0  0  0
  4  5  1  0  0  0  0
  5  6  4  0  0  0  0
  6  7  4  0  0  0  0
  7  8  1  0  0  0  0
  8  9  1  0  0  0  0
  9 10  1  0  0  0  0
  9 11  1  0  0  0  0
 11 12  1  0  0  0  0
 11 13  1  0  0  0  0
 11 14  1  0  0  0  0
  7 15  4  0  0  0  0
 15 16  1  0  0  0  0
 16 17  2  0  0  0  0
 16 18  1  0  0  0  0
 18 19  1  0  0  0  0
 19 20  4  0  0  0  0
 20 21  1  0  0  0  0
 20 22  4  0  0  0  0
 22 23  4  0  0  0  0
 23 24  4  0  0  0  0
 24 25  4  0  0  0  0
 19 25  4  0  0  0  0
 25 26  1  0  0  0  0
 15 27  4  0  0  0  0
 27 28  4  0  0  0  0
  5 28  4  0  0  0  0
 28 29  1  0  0  0  0
  4 30  4  0  0  0  0
 30 31  4  0  0  0  0
  2 31  4  0  0  0  0
 31 32  1  0  0  0  0
 32 33  1  0  0  0  0
 32 34  1  0  0  0  0
M  END
> <IC50(uM)>
3.9E-4

> <Outcome>
1.0

> <BindingDB ID>
1121393; 1121392

> <BindingDB MonomerID>
530459; 530458

> <BindingDB Ligand Name>
N-(2-Chloro-6-fluorophenyl)-5-fluoro-4-(3-((S*)-1-hydroxyethyl)-4-methyl-1H-pyrazol-1-y1)-2-(((S)-1,1,1-trifluoropropan-2-yl)oxy)benzamide::WO2022070069, Example 2; N-(2-Chloro-6-fluorophenyl)-5-fluoro-4-(3-((R*)-1-hydroxyethyl)-4-methyl-1H-pyrazol-1-y1)-2-(((S)-1,1,1-trifluoropropan-2-yl)oxy)benzamide::WO2022070069, Example 1

> <Curation/DataSource>
Curated from the literature by BindingDB

> <Article DOI>
?

> <PMID>
WO2022070069

> <Patent Number>
?

> <Authors>
Lindsey, D; Scott, K

> <Link to Ligand in BindingDB>
http://www.bindingdb.org/bind/chemsearch/marvin/MolStructure.jsp?monomerid=530459; http://www.bindingdb.org/bind/chemsearch/marvin/MolStructure.jsp?monomerid=530458

> <Link to Ligand-Target Pair in BindingDB>
http://www.bindingdb.org/jsp/dbsearch/PrimarySearch_ki.jsp?energyterm=kJ/mole&tag=r21&monomerid=530459&enzyme=Dihydroorotate+dehydrogenase&column=ki&startPg=0&Increment=50&submit=Search; http://www.bindingdb.org/jsp/dbsearch/PrimarySearch_ki.jsp?energyterm=kJ/mole&tag=r21&monomerid=530458&enzyme=Dihydroorotate+dehydrogenase&column=ki&startPg=0&Increment=50&submit=Search

> <PubChem CID>
?

> <PubChem SID>
?

$$$$

  Mrv2115 07222212352D          

 36 40  0  0  0  0            999 V2000
   -5.1659   -2.8414    0.0000 C   0  0  0  0  0  0  0  0  0  0  0  0
   -5.5784   -2.1269    0.0000 C   0  0  0  0  0  0  0  0  0  0  0  0
   -6.4034   -2.1269    0.0000 N   0  0  0  0  0  0  0  0  0  0  0  0
   -6.8159   -1.4124    0.0000 C   0  0  0  0  0  0  0  0  0  0  0  0
   -6.4034   -0.6979    0.0000 N   0  0  0  0  0  0  0  0  0  0  0  0
   -5.5784   -0.6979    0.0000 C   0  0  0  0  0  0  0  0  0  0  0  0
   -5.1659   -1.4124    0.0000 C   0  0  0  0  0  0  0  0  0  0  0  0
   -4.3409   -1.4124    0.0000 N   0  0  0  0  0  0  0  0  0  0  0  0
   -3.9284   -0.6979    0.0000 C   0  0  0  0  0  0  0  0  0  0  0  0
   -4.3409    0.0165    0.0000 O   0  0  0  0  0  0  0  0  0  0  0  0
   -3.1034   -0.6979    0.0000 C   0  0  0  0  0  0  0  0  0  0  0  0
   -2.6909    0.0165    0.0000 C   0  0  0  0  0  0  0  0  0  0  0  0
   -1.8659    0.0165    0.0000 C   0  0  0  0  0  0  0  0  0  0  0  0
   -1.4534    0.7310    0.0000 F   0  0  0  0  0  0  0  0  0  0  0  0
   -1.4534   -0.6979    0.0000 C   0  0  0  0  0  0  0  0  0  0  0  0
   -0.6284   -0.6979    0.0000 N   0  0  0  0  0  0  0  0  0  0  0  0
   -0.1435   -1.3654    0.0000 N   0  0  0  0  0  0  0  0  0  0  0  0
    0.6411   -1.1104    0.0000 C   0  0  0  0  0  0  0  0  0  0  0  0
    0.6411   -0.2854    0.0000 N   0  0  0  0  0  0  0  0  0  0  0  0
   -0.1435   -0.0305    0.0000 C   0  0  0  0  0  0  0  0  0  0  0  0
   -0.3984    0.7541    0.0000 O   0  0  0  0  0  0  0  0  0  0  0  0
    1.3556    0.1271    0.0000 C   0  0  0  0  0  0  0  0  0  0  0  0
    2.0701   -0.2854    0.0000 C   0  0  0  0  0  0  0  0  0  0  0  0
    2.0701   -1.1104    0.0000 C   0  0  0  0  0  0  0  0  0  0  0  0
    1.3556   -1.5229    0.0000 C   0  0  0  0  0  0  0  0  0  0  0  0
   -1.8659   -1.4124    0.0000 C   0  0  0  0  0  0  0  0  0  0  0  0
   -2.6909   -1.4124    0.0000 C   0  0  0  0  0  0  0  0  0  0  0  0
   -3.1034   -2.1269    0.0000 O   0  0  0  0  0  0  0  0  0  0  0  0
   -2.6909   -2.8414    0.0000 C   0  0  0  0  0  0  0  0  0  0  0  0
   -1.8659   -2.8414    0.0000 C   0  0  0  0  0  0  0  0  0  0  0  0
   -3.1034   -3.5558    0.0000 C   0  0  0  0  0  0  0  0  0  0  0  0
   -2.6909   -4.2703    0.0000 C   0  0  0  0  0  0  0  0  0  0  0  0
   -3.1034   -4.9848    0.0000 C   0  0  0  0  0  0  0  0  0  0  0  0
   -3.9284   -4.9848    0.0000 C   0  0  0  0  0  0  0  0  0  0  0  0
   -4.3409   -4.2703    0.0000 C   0  0  0  0  0  0  0  0  0  0  0  0
   -3.9284   -3.5558    0.0000 C   0  0  0  0  0  0  0  0  0  0  0  0
  1  2  1  0  0  0  0
  2  3  4  0  0  0  0
  3  4  4  0  0  0  0
  4  5  4  0  0  0  0
  5  6  4  0  0  0  0
  6  7  4  0  0  0  0
  2  7  4  0  0  0  0
  7  8  1  0  0  0  0
  8  9  1  0  0  0  0
  9 10  2  0  0  0  0
  9 11  1  0  0  0  0
 11 12  4  0  0  0  0
 12 13  4  0  0  0  0
 13 14  1  0  0  0  0
 13 15  4  0  0  0  0
 15 16  1  0  0  0  0
 16 17  4  0  0  0  0
 17 18  4  0  0  0  0
 18 19  4  0  0  0  0
 19 20  4  0  0  0  0
 16 20  4  0  0  0  0
 20 21  2  0  0  0  0
 19 22  1  0  0  0  0
 22 23  1  0  0  0  0
 23 24  1  0  0  0  0
 24 25  1  0  0  0  0
 18 25  1  0  0  0  0
 15 26  4  0  0  0  0
 26 27  4  0  0  0  0
 11 27  4  0  0  0  0
 27 28  1  0  0  0  0
 28 29  1  0  0  0  0
 29 30  1  0  0  0  0
 29 31  1  0  0  0  0
 31 32  1  0  0  0  0
 32 33  1  0  0  0  0
 33 34  1  0  0  0  0
 34 35  1  0  0  0  0
 35 36  1  0  0  0  0
 31 36  1  0  0  0  0
M  END
> <IC50(uM)>
0.18

> <Outcome>
1.0

> <BindingDB ID>
1020515

> <BindingDB MonomerID>
490463

> <BindingDB Ligand Name>
2-[(1S)-1-cyclohexylethoxy]-5-fluoro-N-(4-methylpyrimidin-5-yl)-4-(3-oxo-5,6,7,8-tetrahydro[1,2,4]triazolo[4,3-a]pyridin-2(3H)-yl)benzamide::US10968216, Example 131

> <Curation/DataSource>
US Patent

> <Article DOI>
?

> <PMID>
?

> <Patent Number>
US10968216

> <Authors>
Gradl, SN; Nguyen, D; Eis, K; Gunther, J; Stellfeld, T; Janzer, A; Christian, S; Mueller, T; Sheikh, SE; Zhou, HJ; Zhao, C; Sykes, DB; Ferrara, SJ; Liu, K; Herbert, SA; Merz, C; Niehues, M; Nising, CF; Schafer, M; Zimmermann, K; Knablein, J; Thede, K; Faupel, T

> <Link to Ligand in BindingDB>
http://www.bindingdb.org/bind/chemsearch/marvin/MolStructure.jsp?monomerid=490463

> <Link to Ligand-Target Pair in BindingDB>
http://www.bindingdb.org/jsp/dbsearch/PrimarySearch_ki.jsp?energyterm=kJ/mole&tag=r21&monomerid=490463&enzyme=Dihydroorotate+dehydrogenase&column=ki&startPg=0&Increment=50&submit=Search

> <PubChem CID>
134474365

> <PubChem SID>
447117190

$$$$

  Mrv2115 07222212352D          

 24 26  0  0  0  0            999 V2000
    2.1434   -2.8875    0.0000 C   0  0  0  0  0  0  0  0  0  0  0  0
    2.1434   -3.7125    0.0000 C   0  0  0  0  0  0  0  0  0  0  0  0
    1.4289   -4.1250    0.0000 C   0  0  0  0  0  0  0  0  0  0  0  0
    1.4289   -4.9500    0.0000 C   0  0  0  0  0  0  0  0  0  0  0  0
    2.1434   -5.3625    0.0000 C   0  0  0  0  0  0  0  0  0  0  0  0
    2.1434   -6.1875    0.0000 N   0  0  0  0  0  0  0  0  0  0  0  0
    1.4289   -6.6000    0.0000 C   0  0  0  0  0  0  0  0  0  0  0  0
    1.4289   -7.4250    0.0000 C   0  0  0  0  0  0  0  0  0  0  0  0
    0.7145   -7.8375    0.0000 C   0  0  0  0  0  0  0  0  0  0  0  0
    0.0000   -7.4250    0.0000 C   0  0  0  0  0  0  0  0  0  0  0  0
   -0.7145   -7.8375    0.0000 C   0  0  0  0  0  0  0  0  0  0  0  0
   -0.7145   -8.6625    0.0000 C   0  0  0  0  0  0  0  0  0  0  0  0
   -1.4289   -9.0750    0.0000 C   0  0  0  0  0  0  0  0  0  0  0  0
   -2.1434   -8.6625    0.0000 N   0  0  0  0  0  0  0  0  0  0  0  0
   -2.1434   -7.8375    0.0000 C   0  0  0  0  0  0  0  0  0  0  0  0
   -1.4289   -7.4250    0.0000 C   0  0  0  0  0  0  0  0  0  0  0  0
   -1.4289   -6.6000    0.0000 F   0  0  0  0  0  0  0  0  0  0  0  0
    0.0000   -6.6000    0.0000 N   0  0  0  0  0  0  0  0  0  0  0  0
    0.7145   -6.1875    0.0000 C   0  0  0  0  0  0  0  0  0  0  0  0
    2.8579   -4.9500    0.0000 C   0  0  0  0  0  0  0  0  0  0  0  0
    3.5724   -5.3625    0.0000 C   0  0  0  0  0  0  0  0  0  0  0  0
    4.2868   -4.9500    0.0000 O   0  0  0  0  0  0  0  0  0  0  0  0
    3.5724   -6.1875    0.0000 O   0  0  0  0  0  0  0  0  0  0  0  0
    2.8579   -4.1250    0.0000 C   0  0  0  0  0  0  0  0  0  0  0  0
  1  2  1  0  0  0  0
  2  3  4  0  0  0  0
  3  4  4  0  0  0  0
  4  5  4  0  0  0  0
  5  6  1  0  0  0  0
  6  7  1  0  0  0  0
  7  8  4  0  0  0  0
  8  9  4  0  0  0  0
  9 10  4  0  0  0  0
 10 11  1  0  0  0  0
 11 12  4  0  0  0  0
 12 13  4  0  0  0  0
 13 14  4  0  0  0  0
 14 15  4  0  0  0  0
 15 16  4  0  0  0  0
 11 16  4  0  0  0  0
 16 17  1  0  0  0  0
 10 18  4  0  0  0  0
 18 19  4  0  0  0  0
  7 19  4  0  0  0  0
  5 20  4  0  0  0  0
 20 21  1  0  0  0  0
 21 22  2  0  0  0  0
 21 23  1  0  0  0  0
 20 24  4  0  0  0  0
  2 24  4  0  0  0  0
M  END
> <IC50(uM)>
0.09

> <Outcome>
1.0

> <BindingDB ID>
220016

> <BindingDB MonomerID>
102486

> <BindingDB Ligand Name>
US8536165, 89

> <Curation/DataSource>
US Patent

> <Article DOI>
?

> <PMID>
?

> <Patent Number>
US8536165

> <Authors>
Castro Palomino Laria, JC; Terricabras Belart, E; Erra Sola, M; Navarro Romero, E; Fonquerna Pou, S; Cardus Figueras, A; Lozoya Toribio, ME

> <Link to Ligand in BindingDB>
http://www.bindingdb.org/bind/chemsearch/marvin/MolStructure.jsp?monomerid=102486

> <Link to Ligand-Target Pair in BindingDB>
http://www.bindingdb.org/jsp/dbsearch/PrimarySearch_ki.jsp?energyterm=kJ/mole&tag=r21&monomerid=102486&enzyme=Dihydroorotate+dehydrogenase&column=ki&startPg=0&Increment=50&submit=Search

> <PubChem CID>
66695116

> <PubChem SID>
172097777

$$$$

  Mrv2115 07222212352D          

 30 33  0  0  0  0            999 V2000
    0.0000   -1.6500    0.0000 C   0  0  0  0  0  0  0  0  0  0  0  0
    0.7145   -1.2375    0.0000 C   0  0  0  0  0  0  0  0  0  0  0  0
    0.7145   -0.4125    0.0000 C   0  0  0  0  0  0  0  0  0  0  0  0
    0.0000    0.0000    0.0000 C   0  0  0  0  0  0  0  0  0  0  0  0
   -0.7145   -0.4125    0.0000 C   0  0  0  0  0  0  0  0  0  0  0  0
   -1.4289    0.0000    0.0000 C   0  0  0  0  0  0  0  0  0  0  0  0
   -1.4289    0.8250    0.0000 C   0  0  0  0  0  0  0  0  0  0  0  0
   -2.1434    1.2375    0.0000 C   0  0  0  0  0  0  0  0  0  0  0  0
   -2.8579    0.8250    0.0000 C   0  0  0  0  0  0  0  0  0  0  0  0
   -3.5724    1.2375    0.0000 C   0  0  0  0  0  0  0  0  0  0  0  0
   -3.5724    2.0625    0.0000 C   0  0  0  0  0  0  0  0  0  0  0  0
   -2.8579    2.4750    0.0000 C   0  0  0  0  0  0  0  0  0  0  0  0
   -2.1434    2.0625    0.0000 C   0  0  0  0  0  0  0  0  0  0  0  0
   -0.7145    1.2375    0.0000 C   0  0  0  0  0  0  0  0  0  0  0  0
    0.0000    0.8250    0.0000 C   0  0  0  0  0  0  0  0  0  0  0  0
    1.4289    0.0000    0.0000 N   0  0  0  0  0  0  0  0  0  0  0  0
    2.1434   -0.4125    0.0000 C   0  0  0  0  0  0  0  0  0  0  0  0
    2.8579    0.0000    0.0000 C   0  0  0  0  0  0  0  0  0  0  0  0
    3.5724   -0.4125    0.0000 N   0  0  0  0  0  0  0  0  0  0  0  0
    3.5724   -1.2375    0.0000 C   0  0  0  0  0  0  0  0  0  0  0  0
    4.2868   -1.6500    0.0000 C   0  0  0  0  0  0  0  0  0  0  0  0
    5.0013   -2.0625    0.0000 F   0  0  0  0  0  0  0  0  0  0  0  0
    3.8743   -2.3645    0.0000 F   0  0  0  0  0  0  0  0  0  0  0  0
    4.6993   -0.9355    0.0000 F   0  0  0  0  0  0  0  0  0  0  0  0
    2.8579   -1.6500    0.0000 C   0  0  0  0  0  0  0  0  0  0  0  0
    2.1434   -1.2375    0.0000 C   0  0  0  0  0  0  0  0  0  0  0  0
    1.4289   -1.6500    0.0000 C   0  0  0  0  0  0  0  0  0  0  0  0
    1.4289   -2.4750    0.0000 C   0  0  0  0  0  0  0  0  0  0  0  0
    0.7145   -2.8875    0.0000 O   0  0  0  0  0  0  0  0  0  0  0  0
    2.1434   -2.8875    0.0000 O   0  0  0  0  0  0  0  0  0  0  0  0
  1  2  1  0  0  0  0
  2  3  4  0  0  0  0
  3  4  1  0  0  0  0
  4  5  4  0  0  0  0
  5  6  4  0  0  0  0
  6  7  4  0  0  0  0
  7  8  1  0  0  0  0
  8  9  4  0  0  0  0
  9 10  4  0  0  0  0
 10 11  4  0  0  0  0
 11 12  4  0  0  0  0
 12 13  4  0  0  0  0
  8 13  4  0  0  0  0
  7 14  4  0  0  0  0
 14 15  4  0  0  0  0
  4 15  4  0  0  0  0
  3 16  4  0  0  0  0
 16 17  4  0  0  0  0
 17 18  4  0  0  0  0
 18 19  4  0  0  0  0
 19 20  4  0  0  0  0
 20 21  1  0  0  0  0
 21 22  1  0  0  0  0
 21 23  1  0  0  0  0
 21 24  1  0  0  0  0
 20 25  4  0  0  0  0
 25 26  4  0  0  0  0
 17 26  4  0  0  0  0
 26 27  4  0  0  0  0
  2 27  4  0  0  0  0
 27 28  1  0  0  0  0
 28 29  2  0  0  0  0
 28 30  1  0  0  0  0
M  END
> <IC50(uM)>
0.021

> <Outcome>
1.0

> <BindingDB ID>
51126195

> <BindingDB MonomerID>
50461881

> <BindingDB Ligand Name>
CHEMBL4227217

> <Curation/DataSource>
ChEMBL

> <Article DOI>
10.1021/acs.jmedchem.7b01862

> <PMID>
29727569

> <Patent Number>
?

> <Authors>
Madak, JT; Cuthbertson, CR; Miyata, Y; Tamura, S; Petrunak, EM; Stuckey, JA; Han, Y; He, M; Sun, D; Showalter, HD; Neamati, N

> <Link to Ligand in BindingDB>
http://www.bindingdb.org/bind/chemsearch/marvin/MolStructure.jsp?monomerid=50461881

> <Link to Ligand-Target Pair in BindingDB>
http://www.bindingdb.org/jsp/dbsearch/PrimarySearch_ki.jsp?energyterm=kJ/mole&tag=r21&monomerid=50461881&enzyme=Dihydroorotate+dehydrogenase&column=ki&startPg=0&Increment=50&submit=Search

> <PubChem CID>
145969067

> <PubChem SID>
433929146

$$$$

  Mrv2115 07222212352D          

 24 27  0  0  0  0            999 V2000
    4.0668    2.3479    0.0000 C   0  0  0  0  0  0  0  0  0  0  0  0
    3.3523    1.9354    0.0000 C   0  0  0  0  0  0  0  0  0  0  0  0
    3.3523    1.1104    0.0000 C   0  0  0  0  0  0  0  0  0  0  0  0
    2.6378    0.6979    0.0000 C   0  0  0  0  0  0  0  0  0  0  0  0
    2.6378   -0.1271    0.0000 N   0  0  0  0  0  0  0  0  0  0  0  0
    3.3523   -0.5396    0.0000 C   0  0  0  0  0  0  0  0  0  0  0  0
    4.0668   -0.1271    0.0000 C   0  0  0  0  0  0  0  0  0  0  0  0
    4.7812   -0.5396    0.0000 C   0  0  0  0  0  0  0  0  0  0  0  0
    4.7812   -1.3646    0.0000 C   0  0  0  0  0  0  0  0  0  0  0  0
    5.4957   -1.7771    0.0000 C   0  0  0  0  0  0  0  0  0  0  0  0
    6.2102   -2.1896    0.0000 F   0  0  0  0  0  0  0  0  0  0  0  0
    5.9082   -1.0626    0.0000 F   0  0  0  0  0  0  0  0  0  0  0  0
    5.0832   -2.4915    0.0000 F   0  0  0  0  0  0  0  0  0  0  0  0
    4.0668   -1.7771    0.0000 C   0  0  0  0  0  0  0  0  0  0  0  0
    3.3523   -1.3646    0.0000 C   0  0  0  0  0  0  0  0  0  0  0  0
    1.9233    1.1104    0.0000 N   0  0  0  0  0  0  0  0  0  0  0  0
    1.1387    0.8555    0.0000 N   0  0  0  0  0  0  0  0  0  0  0  0
    0.6538    1.5229    0.0000 C   0  0  0  0  0  0  0  0  0  0  0  0
   -0.1712    1.5229    0.0000 C   0  0  0  0  0  0  0  0  0  0  0  0
   -0.8857    1.1104    0.0000 C   0  0  0  0  0  0  0  0  0  0  0  0
   -0.8857    1.9354    0.0000 C   0  0  0  0  0  0  0  0  0  0  0  0
    1.1387    2.1904    0.0000 N   0  0  0  0  0  0  0  0  0  0  0  0
    1.9233    1.9354    0.0000 C   0  0  0  0  0  0  0  0  0  0  0  0
    2.6378    2.3479    0.0000 N   0  0  0  0  0  0  0  0  0  0  0  0
  1  2  1  0  0  0  0
  2  3  4  0  0  0  0
  3  4  4  0  0  0  0
  4  5  1  0  0  0  0
  5  6  1  0  0  0  0
  6  7  4  0  0  0  0
  7  8  4  0  0  0  0
  8  9  4  0  0  0  0
  9 10  1  0  0  0  0
 10 11  1  0  0  0  0
 10 12  1  0  0  0  0
 10 13  1  0  0  0  0
  9 14  4  0  0  0  0
 14 15  4  0  0  0  0
  6 15  4  0  0  0  0
  4 16  4  0  0  0  0
 16 17  4  0  0  0  0
 17 18  4  0  0  0  0
 18 19  1  0  0  0  0
 19 20  1  0  0  0  0
 20 21  1  0  0  0  0
 19 21  1  0  0  0  0
 18 22  4  0  0  0  0
 22 23  4  0  0  0  0
 16 23  4  0  0  0  0
 23 24  4  0  0  0  0
  2 24  4  0  0  0  0
M  END
> <IC50(uM)>
100.0

> <Outcome>
0.0

> <BindingDB ID>
50720164

> <BindingDB MonomerID>
50365234

> <BindingDB Ligand Name>
CHEMBL1956278::US9238653, Table 5, Compound 47

> <Curation/DataSource>
ChEMBL

> <Article DOI>
10.1021/jm200592f

> <PMID>
21696174

> <Patent Number>
?

> <Authors>
Coteron, JM; Marco, M; Esquivias, J; Deng, X; White, KL; White, J; Koltun, M; El Mazouni, F; Kokkonda, S; Katneni, K; Bhamidipati, R; Shackleford, DM; Angulo-Barturen, I; Ferrer, SB; Jimenez-Diaz, MB; Gamo, FJ; Goldsmith, EJ; Charman, WN; Bathurst, I; Floyd, D; Matthews, D; Burrows, JN; Rathod, PK; Charman, SA; Phillips, MA

> <Link to Ligand in BindingDB>
http://www.bindingdb.org/bind/chemsearch/marvin/MolStructure.jsp?monomerid=50365234

> <Link to Ligand-Target Pair in BindingDB>
http://www.bindingdb.org/jsp/dbsearch/PrimarySearch_ki.jsp?energyterm=kJ/mole&tag=r21&monomerid=50365234&enzyme=Dihydroorotate+dehydrogenase&column=ki&startPg=0&Increment=50&submit=Search

> <PubChem CID>
51347692

> <PubChem SID>
136969296

$$$$

  Mrv2115 07222212352D          

 36 39  0  0  0  0            999 V2000
   -3.1034    3.5889    0.0000 C   0  0  0  0  0  0  0  0  0  0  0  0
   -2.6909    2.8744    0.0000 O   0  0  0  0  0  0  0  0  0  0  0  0
   -3.1034    2.1599    0.0000 C   0  0  0  0  0  0  0  0  0  0  0  0
   -2.6909    1.4455    0.0000 C   0  0  0  0  0  0  0  0  0  0  0  0
   -3.1034    0.7310    0.0000 C   0  0  0  0  0  0  0  0  0  0  0  0
   -3.9284    0.7310    0.0000 C   0  0  0  0  0  0  0  0  0  0  0  0
   -4.3409    0.0165    0.0000 N   0  0  0  0  0  0  0  0  0  0  0  0
   -3.9284   -0.6979    0.0000 C   0  0  0  0  0  0  0  0  0  0  0  0
   -4.3409   -1.4124    0.0000 O   0  0  0  0  0  0  0  0  0  0  0  0
   -3.1034   -0.6979    0.0000 C   0  0  0  0  0  0  0  0  0  0  0  0
   -2.6909    0.0165    0.0000 C   0  0  0  0  0  0  0  0  0  0  0  0
   -1.8659    0.0165    0.0000 C   0  0  0  0  0  0  0  0  0  0  0  0
   -1.4534    0.7310    0.0000 F   0  0  0  0  0  0  0  0  0  0  0  0
   -1.4534   -0.6979    0.0000 C   0  0  0  0  0  0  0  0  0  0  0  0
   -0.6284   -0.6979    0.0000 N   0  0  0  0  0  0  0  0  0  0  0  0
   -0.1435   -1.3654    0.0000 N   0  0  0  0  0  0  0  0  0  0  0  0
    0.6411   -1.1104    0.0000 C   0  0  0  0  0  0  0  0  0  0  0  0
    0.6411   -0.2854    0.0000 N   0  0  0  0  0  0  0  0  0  0  0  0
   -0.1435   -0.0305    0.0000 C   0  0  0  0  0  0  0  0  0  0  0  0
   -0.3984    0.7541    0.0000 O   0  0  0  0  0  0  0  0  0  0  0  0
    1.3556    0.1271    0.0000 C   0  0  0  0  0  0  0  0  0  0  0  0
    2.0701   -0.2854    0.0000 C   0  0  0  0  0  0  0  0  0  0  0  0
    2.0701   -1.1104    0.0000 C   0  0  0  0  0  0  0  0  0  0  0  0
    1.3556   -1.5229    0.0000 C   0  0  0  0  0  0  0  0  0  0  0  0
   -1.8659   -1.4124    0.0000 C   0  0  0  0  0  0  0  0  0  0  0  0
   -2.6909   -1.4124    0.0000 C   0  0  0  0  0  0  0  0  0  0  0  0
   -3.1034   -2.1269    0.0000 O   0  0  0  0  0  0  0  0  0  0  0  0
   -2.6909   -2.8414    0.0000 C   0  0  0  0  0  0  0  0  0  0  0  0
   -1.8659   -2.8414    0.0000 C   0  0  0  0  0  0  0  0  0  0  0  0
   -3.1034   -3.5558    0.0000 C   0  0  0  0  0  0  0  0  0  0  0  0
   -3.8179   -3.1433    0.0000 F   0  0  0  0  0  0  0  0  0  0  0  0
   -2.3890   -3.9683    0.0000 F   0  0  0  0  0  0  0  0  0  0  0  0
   -3.5159   -4.2703    0.0000 F   0  0  0  0  0  0  0  0  0  0  0  0
   -4.3409    1.4455    0.0000 C   0  0  0  0  0  0  0  0  0  0  0  0
   -5.1659    1.4455    0.0000 C   0  0  0  0  0  0  0  0  0  0  0  0
   -3.9284    2.1599    0.0000 N   0  0  0  0  0  0  0  0  0  0  0  0
  1  2  1  0  0  0  0
  2  3  1  0  0  0  0
  3  4  4  0  0  0  0
  4  5  4  0  0  0  0
  5  6  4  0  0  0  0
  6  7  1  0  0  0  0
  7  8  1  0  0  0  0
  8  9  2  0  0  0  0
  8 10  1  0  0  0  0
 10 11  4  0  0  0  0
 11 12  4  0  0  0  0
 12 13  1  0  0  0  0
 12 14  4  0  0  0  0
 14 15  1  0  0  0  0
 15 16  4  0  0  0  0
 16 17  4  0  0  0  0
 17 18  4  0  0  0  0
 18 19  4  0  0  0  0
 15 19  4  0  0  0  0
 19 20  2  0  0  0  0
 18 21  1  0  0  0  0
 21 22  1  0  0  0  0
 22 23  1  0  0  0  0
 23 24  1  0  0  0  0
 17 24  1  0  0  0  0
 14 25  4  0  0  0  0
 25 26  4  0  0  0  0
 10 26  4  0  0  0  0
 26 27  1  0  0  0  0
 27 28  1  0  0  0  0
 28 29  1  0  0  0  0
 28 30  1  0  0  0  0
 30 31  1  0  0  0  0
 30 32  1  0  0  0  0
 30 33  1  0  0  0  0
  6 34  4  0  0  0  0
 34 35  1  0  0  0  0
 34 36  4  0  0  0  0
  3 36  4  0  0  0  0
M  END
> <IC50(uM)>
0.29

> <Outcome>
1.0

> <BindingDB ID>
1020434

> <BindingDB MonomerID>
490385

> <BindingDB Ligand Name>
5-fluoro-N-(6-methoxy-2-methylpyridin-3-yl)-4-(3-oxo-5,6,7,8-tetrahydro[1,2,4]triazolo[4,3-a]pyridin-2(3H)-yl)-2-{[(2S)-1,1,1-trifluoropropan-2-yl]oxy}benzamide::US10968216, Example 53

> <Curation/DataSource>
US Patent

> <Article DOI>
?

> <PMID>
?

> <Patent Number>
US10968216

> <Authors>
Gradl, SN; Nguyen, D; Eis, K; Gunther, J; Stellfeld, T; Janzer, A; Christian, S; Mueller, T; Sheikh, SE; Zhou, HJ; Zhao, C; Sykes, DB; Ferrara, SJ; Liu, K; Herbert, SA; Merz, C; Niehues, M; Nising, CF; Schafer, M; Zimmermann, K; Knablein, J; Thede, K; Faupel, T

> <Link to Ligand in BindingDB>
http://www.bindingdb.org/bind/chemsearch/marvin/MolStructure.jsp?monomerid=490385

> <Link to Ligand-Target Pair in BindingDB>
http://www.bindingdb.org/jsp/dbsearch/PrimarySearch_ki.jsp?energyterm=kJ/mole&tag=r21&monomerid=490385&enzyme=Dihydroorotate+dehydrogenase&column=ki&startPg=0&Increment=50&submit=Search

> <PubChem CID>
134474324

> <PubChem SID>
447117112

$$$$

  Mrv2115 07222212352D          

 37 41  0  0  0  0            999 V2000
   -2.8961    0.8271    0.0000 C   0  0  0  0  0  0  0  0  0  0  0  0
   -2.3441    1.4402    0.0000 C   0  0  0  0  0  0  0  0  0  0  0  0
   -1.5371    1.2687    0.0000 O   0  0  0  0  0  0  0  0  0  0  0  0
   -0.9851    1.8818    0.0000 C   0  0  0  0  0  0  0  0  0  0  0  0
   -1.2400    2.6664    0.0000 C   0  0  0  0  0  0  0  0  0  0  0  0
   -0.6880    3.2795    0.0000 C   0  0  0  0  0  0  0  0  0  0  0  0
   -0.9429    4.0641    0.0000 N   0  0  0  0  0  0  0  0  0  0  0  0
   -0.4580    4.7316    0.0000 N   0  0  0  0  0  0  0  0  0  0  0  0
   -0.9429    5.3990    0.0000 C   0  0  0  0  0  0  0  0  0  0  0  0
   -1.7276    5.1441    0.0000 N   0  0  0  0  0  0  0  0  0  0  0  0
   -1.7276    4.3191    0.0000 C   0  0  0  0  0  0  0  0  0  0  0  0
   -2.3950    3.8341    0.0000 O   0  0  0  0  0  0  0  0  0  0  0  0
   -2.3407    5.6961    0.0000 C   0  0  0  0  0  0  0  0  0  0  0  0
   -2.1691    6.5031    0.0000 C   0  0  0  0  0  0  0  0  0  0  0  0
   -1.3845    6.7580    0.0000 C   0  0  0  0  0  0  0  0  0  0  0  0
   -0.7714    6.2060    0.0000 C   0  0  0  0  0  0  0  0  0  0  0  0
    0.1190    3.1080    0.0000 C   0  0  0  0  0  0  0  0  0  0  0  0
    0.6710    3.7211    0.0000 F   0  0  0  0  0  0  0  0  0  0  0  0
    0.3739    2.3234    0.0000 C   0  0  0  0  0  0  0  0  0  0  0  0
   -0.1781    1.7103    0.0000 C   0  0  0  0  0  0  0  0  0  0  0  0
    0.0768    0.9256    0.0000 C   0  0  0  0  0  0  0  0  0  0  0  0
   -0.4752    0.3126    0.0000 O   0  0  0  0  0  0  0  0  0  0  0  0
    0.8838    0.7541    0.0000 N   0  0  0  0  0  0  0  0  0  0  0  0
    1.1387   -0.0305    0.0000 C   0  0  0  0  0  0  0  0  0  0  0  0
    1.9233   -0.2854    0.0000 C   0  0  0  0  0  0  0  0  0  0  0  0
    2.6378    0.1271    0.0000 C   0  0  0  0  0  0  0  0  0  0  0  0
    3.3523   -0.2854    0.0000 C   0  0  0  0  0  0  0  0  0  0  0  0
    3.3523   -1.1104    0.0000 C   0  0  0  0  0  0  0  0  0  0  0  0
    2.6378   -1.5229    0.0000 C   0  0  0  0  0  0  0  0  0  0  0  0
    1.9233   -1.1104    0.0000 C   0  0  0  0  0  0  0  0  0  0  0  0
    1.1387   -1.3654    0.0000 C   0  0  0  0  0  0  0  0  0  0  0  0
    0.6538   -0.6979    0.0000 C   0  0  0  0  0  0  0  0  0  0  0  0
   -0.1712   -0.6979    0.0000 O   0  0  0  0  0  0  0  0  0  0  0  0
   -2.5990    2.2248    0.0000 C   0  0  0  0  0  0  0  0  0  0  0  0
   -1.8144    2.4798    0.0000 F   0  0  0  0  0  0  0  0  0  0  0  0
   -3.3837    1.9699    0.0000 F   0  0  0  0  0  0  0  0  0  0  0  0
   -2.8540    3.0095    0.0000 F   0  0  0  0  0  0  0  0  0  0  0  0
  1  2  1  0  0  0  0
  2  3  1  0  0  0  0
  3  4  1  0  0  0  0
  4  5  4  0  0  0  0
  5  6  4  0  0  0  0
  6  7  1  0  0  0  0
  7  8  4  0  0  0  0
  8  9  4  0  0  0  0
  9 10  4  0  0  0  0
 10 11  4  0  0  0  0
  7 11  4  0  0  0  0
 11 12  2  0  0  0  0
 10 13  1  0  0  0  0
 13 14  1  0  0  0  0
 14 15  1  0  0  0  0
 15 16  1  0  0  0  0
  9 16  1  0  0  0  0
  6 17  4  0  0  0  0
 17 18  1  0  0  0  0
 17 19  4  0  0  0  0
 19 20  4  0  0  0  0
  4 20  4  0  0  0  0
 20 21  1  0  0  0  0
 21 22  2  0  0  0  0
 21 23  1  0  0  0  0
 23 24  1  0  0  0  0
 24 25  1  0  0  0  0
 25 26  4  0  0  0  0
 26 27  4  0  0  0  0
 27 28  4  0  0  0  0
 28 29  4  0  0  0  0
 29 30  4  0  0  0  0
 25 30  4  0  0  0  0
 30 31  1  0  0  0  0
 31 32  1  0  0  0  0
 24 32  1  0  0  0  0
 32 33  1  0  0  0  0
  2 34  1  0  0  0  0
 34 35  1  0  0  0  0
 34 36  1  0  0  0  0
 34 37  1  0  0  0  0
M  END
> <IC50(uM)>
0.5

> <Outcome>
1.0

> <BindingDB ID>
1020495

> <BindingDB MonomerID>
490443

> <BindingDB Ligand Name>
5-fluoro-N-[(1S,2S)-2-hydroxy-2,3-dihydro-1H-inden-1-yl]-4-(3-oxo-5,6,7,8-tetrahydro[1,2,4]triazolo[4,3-a]pyridin-2(3H)-yl)-2-{[(2S)-1,1,1-trifluoropropan-2-yl]oxy}benzamide::US10968216, Example 111

> <Curation/DataSource>
US Patent

> <Article DOI>
?

> <PMID>
?

> <Patent Number>
US10968216

> <Authors>
Gradl, SN; Nguyen, D; Eis, K; Gunther, J; Stellfeld, T; Janzer, A; Christian, S; Mueller, T; Sheikh, SE; Zhou, HJ; Zhao, C; Sykes, DB; Ferrara, SJ; Liu, K; Herbert, SA; Merz, C; Niehues, M; Nising, CF; Schafer, M; Zimmermann, K; Knablein, J; Thede, K; Faupel, T

> <Link to Ligand in BindingDB>
http://www.bindingdb.org/bind/chemsearch/marvin/MolStructure.jsp?monomerid=490443

> <Link to Ligand-Target Pair in BindingDB>
http://www.bindingdb.org/jsp/dbsearch/PrimarySearch_ki.jsp?energyterm=kJ/mole&tag=r21&monomerid=490443&enzyme=Dihydroorotate+dehydrogenase&column=ki&startPg=0&Increment=50&submit=Search

> <PubChem CID>
142335904

> <PubChem SID>
447117170

$$$$

  Mrv2115 07222212352D          

 30 33  0  0  0  0            999 V2000
    6.8513   -2.4750    0.0000 C   0  0  0  0  0  0  0  0  0  0  0  0
    6.1368   -2.8875    0.0000 C   0  0  0  0  0  0  0  0  0  0  0  0
    6.1368   -3.7125    0.0000 C   0  0  0  0  0  0  0  0  0  0  0  0
    5.4223   -4.1250    0.0000 C   0  0  0  0  0  0  0  0  0  0  0  0
    5.4223   -4.9500    0.0000 N   0  0  0  0  0  0  0  0  0  0  0  0
    6.1368   -5.3625    0.0000 C   0  0  0  0  0  0  0  0  0  0  0  0
    6.8513   -4.9500    0.0000 C   0  0  0  0  0  0  0  0  0  0  0  0
    7.5658   -5.3625    0.0000 C   0  0  0  0  0  0  0  0  0  0  0  0
    7.5658   -6.1875    0.0000 C   0  0  0  0  0  0  0  0  0  0  0  0
    8.2802   -6.6000    0.0000 C   0  0  0  0  0  0  0  0  0  0  0  0
    8.2802   -7.4250    0.0000 C   0  0  0  0  0  0  0  0  0  0  0  0
    8.9947   -7.8375    0.0000 F   0  0  0  0  0  0  0  0  0  0  0  0
    7.5658   -7.8375    0.0000 C   0  0  0  0  0  0  0  0  0  0  0  0
    7.5658   -8.6625    0.0000 C   0  0  0  0  0  0  0  0  0  0  0  0
    7.5658   -9.4875    0.0000 F   0  0  0  0  0  0  0  0  0  0  0  0
    6.7408   -8.6625    0.0000 F   0  0  0  0  0  0  0  0  0  0  0  0
    8.3908   -8.6625    0.0000 F   0  0  0  0  0  0  0  0  0  0  0  0
    6.8513   -7.4250    0.0000 C   0  0  0  0  0  0  0  0  0  0  0  0
    6.8513   -6.6000    0.0000 C   0  0  0  0  0  0  0  0  0  0  0  0
    6.1368   -6.1875    0.0000 C   0  0  0  0  0  0  0  0  0  0  0  0
    4.7079   -3.7125    0.0000 N   0  0  0  0  0  0  0  0  0  0  0  0
    3.9232   -3.9674    0.0000 N   0  0  0  0  0  0  0  0  0  0  0  0
    3.4383   -3.3000    0.0000 C   0  0  0  0  0  0  0  0  0  0  0  0
    2.6133   -3.3000    0.0000 C   0  0  0  0  0  0  0  0  0  0  0  0
    1.7883   -3.3000    0.0000 C   0  0  0  0  0  0  0  0  0  0  0  0
    2.6133   -2.4750    0.0000 F   0  0  0  0  0  0  0  0  0  0  0  0
    2.6133   -4.1250    0.0000 F   0  0  0  0  0  0  0  0  0  0  0  0
    3.9232   -2.6326    0.0000 N   0  0  0  0  0  0  0  0  0  0  0  0
    4.7079   -2.8875    0.0000 C   0  0  0  0  0  0  0  0  0  0  0  0
    5.4223   -2.4750    0.0000 N   0  0  0  0  0  0  0  0  0  0  0  0
  1  2  1  0  0  0  0
  2  3  4  0  0  0  0
  3  4  4  0  0  0  0
  4  5  1  0  0  0  0
  5  6  1  0  0  0  0
  6  7  1  0  0  0  0
  7  8  1  0  0  0  0
  8  9  1  0  0  0  0
  9 10  4  0  0  0  0
 10 11  4  0  0  0  0
 11 12  1  0  0  0  0
 11 13  4  0  0  0  0
 13 14  1  0  0  0  0
 14 15  1  0  0  0  0
 14 16  1  0  0  0  0
 14 17  1  0  0  0  0
 13 18  4  0  0  0  0
 18 19  4  0  0  0  0
  9 19  4  0  0  0  0
 19 20  1  0  0  0  0
  6 20  1  0  0  0  0
  4 21  4  0  0  0  0
 21 22  4  0  0  0  0
 22 23  4  0  0  0  0
 23 24  1  0  0  0  0
 24 25  1  0  0  0  0
 24 26  1  0  0  0  0
 24 27  1  0  0  0  0
 23 28  4  0  0  0  0
 28 29  4  0  0  0  0
 21 29  4  0  0  0  0
 29 30  4  0  0  0  0
  2 30  4  0  0  0  0
M  END
> <IC50(uM)>
100.0

> <Outcome>
0.0

> <BindingDB ID>
51373005

> <BindingDB MonomerID>
50555373

> <BindingDB Ligand Name>
CHEMBL4777941

> <Curation/DataSource>
ChEMBL

> <Article DOI>
?

> <PMID>
27127993

> <Patent Number>
?

> <Authors>
Kokkonda, S; Deng, X; White, KL; Coteron, JM; Marco, M; de Las Heras, L; White, J; El Mazouni, F; Tomchick, DR; Manjalanagara, K; Rudra, KR; Chen, G; Morizzi, J; Ryan, E; Kaminsky, W; Leroy, D; Mart??nez-Mart??nez, MS; Jimenez-Diaz, MB; Bazaga, SF; Angulo-Barturen, I; Waterson, D; Burrows, JN; Matthews, D; Charman, SA; Phillips, MA; Rathod, PK

> <Link to Ligand in BindingDB>
http://www.bindingdb.org/bind/chemsearch/marvin/MolStructure.jsp?monomerid=50555373

> <Link to Ligand-Target Pair in BindingDB>
http://www.bindingdb.org/jsp/dbsearch/PrimarySearch_ki.jsp?energyterm=kJ/mole&tag=r21&monomerid=50555373&enzyme=Dihydroorotate+dehydrogenase&column=ki&startPg=0&Increment=50&submit=Search

> <PubChem CID>
162644328

> <PubChem SID>
461694141

$$$$

  Mrv2115 07222212352D          

 37 40  0  0  0  0            999 V2000
   -0.7145   -3.7125    0.0000 C   0  0  0  0  0  0  0  0  0  0  0  0
    0.0000   -4.1250    0.0000 C   0  0  0  0  0  0  0  0  0  0  0  0
    0.0000   -4.9500    0.0000 C   0  0  0  0  0  0  0  0  0  0  0  0
    0.6674   -5.4349    0.0000 N   0  0  0  0  0  0  0  0  0  0  0  0
    0.4125   -6.2195    0.0000 N   0  0  0  0  0  0  0  0  0  0  0  0
    0.8974   -6.8870    0.0000 C   0  0  0  0  0  0  0  0  0  0  0  0
    1.7179   -6.8007    0.0000 C   0  0  0  0  0  0  0  0  0  0  0  0
    2.2028   -7.4682    0.0000 C   0  0  0  0  0  0  0  0  0  0  0  0
    3.0233   -7.3820    0.0000 O   0  0  0  0  0  0  0  0  0  0  0  0
    3.3589   -6.6283    0.0000 C   0  0  0  0  0  0  0  0  0  0  0  0
    2.8739   -5.9608    0.0000 C   0  0  0  0  0  0  0  0  0  0  0  0
    4.1793   -6.5420    0.0000 C   0  0  0  0  0  0  0  0  0  0  0  0
    4.5149   -5.7884    0.0000 C   0  0  0  0  0  0  0  0  0  0  0  0
    5.3354   -5.7021    0.0000 C   0  0  0  0  0  0  0  0  0  0  0  0
    5.8203   -6.3696    0.0000 C   0  0  0  0  0  0  0  0  0  0  0  0
    5.4847   -7.1232    0.0000 C   0  0  0  0  0  0  0  0  0  0  0  0
    4.6643   -7.2095    0.0000 C   0  0  0  0  0  0  0  0  0  0  0  0
    1.8673   -8.2219    0.0000 C   0  0  0  0  0  0  0  0  0  0  0  0
    2.3522   -8.8893    0.0000 C   0  0  0  0  0  0  0  0  0  0  0  0
    3.1727   -8.8031    0.0000 O   0  0  0  0  0  0  0  0  0  0  0  0
    2.0166   -9.6430    0.0000 N   0  0  0  0  0  0  0  0  0  0  0  0
    2.5016  -10.3104    0.0000 C   0  0  0  0  0  0  0  0  0  0  0  0
    3.3220  -10.2242    0.0000 C   0  0  0  0  0  0  0  0  0  0  0  0
    3.8070  -10.8916    0.0000 C   0  0  0  0  0  0  0  0  0  0  0  0
    3.4714  -11.6453    0.0000 C   0  0  0  0  0  0  0  0  0  0  0  0
    2.6509  -11.7315    0.0000 C   0  0  0  0  0  0  0  0  0  0  0  0
    2.1660  -11.0641    0.0000 C   0  0  0  0  0  0  0  0  0  0  0  0
    1.3455  -11.1503    0.0000 C   0  0  0  0  0  0  0  0  0  0  0  0
    0.8606  -10.4829    0.0000 F   0  0  0  0  0  0  0  0  0  0  0  0
    1.0100  -11.9040    0.0000 F   0  0  0  0  0  0  0  0  0  0  0  0
    1.0468   -8.3081    0.0000 C   0  0  0  0  0  0  0  0  0  0  0  0
    0.5619   -7.6407    0.0000 C   0  0  0  0  0  0  0  0  0  0  0  0
   -0.2586   -7.7269    0.0000 F   0  0  0  0  0  0  0  0  0  0  0  0
   -0.4125   -6.2195    0.0000 C   0  0  0  0  0  0  0  0  0  0  0  0
   -0.8974   -6.8870    0.0000 O   0  0  0  0  0  0  0  0  0  0  0  0
   -0.6674   -5.4349    0.0000 N   0  0  0  0  0  0  0  0  0  0  0  0
   -1.4521   -5.1800    0.0000 C   0  0  0  0  0  0  0  0  0  0  0  0
  1  2  1  0  0  0  0
  2  3  1  0  0  0  0
  3  4  4  0  0  0  0
  4  5  4  0  0  0  0
  5  6  1  0  0  0  0
  6  7  4  0  0  0  0
  7  8  4  0  0  0  0
  8  9  1  0  0  0  0
  9 10  1  0  0  0  0
 10 11  1  0  0  0  0
 10 12  1  0  0  0  0
 12 13  4  0  0  0  0
 13 14  4  0  0  0  0
 14 15  4  0  0  0  0
 15 16  4  0  0  0  0
 16 17  4  0  0  0  0
 12 17  4  0  0  0  0
  8 18  4  0  0  0  0
 18 19  1  0  0  0  0
 19 20  2  0  0  0  0
 19 21  1  0  0  0  0
 21 22  1  0  0  0  0
 22 23  4  0  0  0  0
 23 24  4  0  0  0  0
 24 25  4  0  0  0  0
 25 26  4  0  0  0  0
 26 27  4  0  0  0  0
 22 27  4  0  0  0  0
 27 28  1  0  0  0  0
 28 29  1  0  0  0  0
 28 30  1  0  0  0  0
 18 31  4  0  0  0  0
 31 32  4  0  0  0  0
  6 32  4  0  0  0  0
 32 33  1  0  0  0  0
  5 34  4  0  0  0  0
 34 35  2  0  0  0  0
 34 36  4  0  0  0  0
  3 36  4  0  0  0  0
 36 37  1  0  0  0  0
M  END
> <IC50(uM)>
0.07

> <Outcome>
1.0

> <BindingDB ID>
1098821; 972667

> <BindingDB MonomerID>
470545

> <BindingDB Ligand Name>
N-[2-(difluoromethyl)phenyl]-4-(3-ethyl-4-methyl-5-oxo-4,5-dihydro-1H-1,2,4-triazol-1-yl)-5-fluoro-2-[(1S)-1-phenylethoxy]benzamide::US10815215, Example 205::US11130745, Example 205; N-[2-(difluoromethyl)phenyl]-4-(3-ethyl-4-methyl-5-oxo-4,5-dihydro-1H-1,2,4-triazol-1-yl)-5-fluoro-2-[(1S)-1-phenylethoxy]benzamide::US10815215, Example 205

> <Curation/DataSource>
US Patent

> <Article DOI>
?

> <PMID>
?

> <Patent Number>
US11130745; US10815215

> <Authors>
Gradl, SN; Nguyen, D; Eis, K; Gunther, J; Stellfeld, T; Janzer, A; Christian, S; Muller, T; Sheikh, SE; Sykes, DB; Ferrara, SJ; Krober, M; Merz, C; Niehues, M; Schafer, M; Zimmermann, K; Nising, CF; Gradl, SN; Nguyen, D; Eis, K; Gunther, J; Stellfeld, T; Janzer, A; Christian, S; Muller, T; Sheikh, SE; Zhou, HJ; Zhao, C; Sykes, DB; Ferrara, SJ; Liu, K; Krober, M; Merz, C; Niehues, M; Schafer, M; Zimmermann, K; Nising, CF

> <Link to Ligand in BindingDB>
http://www.bindingdb.org/bind/chemsearch/marvin/MolStructure.jsp?monomerid=470545

> <Link to Ligand-Target Pair in BindingDB>
http://www.bindingdb.org/jsp/dbsearch/PrimarySearch_ki.jsp?energyterm=kJ/mole&tag=r21&monomerid=470545&enzyme=Dihydroorotate+dehydrogenase&column=ki&startPg=0&Increment=50&submit=Search

> <PubChem CID>
134470127

> <PubChem SID>
441609721

$$$$

  Mrv2115 07222212352D          

 21 23  0  0  0  0            999 V2000
    1.4289   -6.6000    0.0000 O   0  0  0  0  0  0  0  0  0  0  0  0
    0.7145   -6.1875    0.0000 C   0  0  0  0  0  0  0  0  0  0  0  0
    0.0000   -6.6000    0.0000 O   0  0  0  0  0  0  0  0  0  0  0  0
    0.7145   -5.3625    0.0000 C   0  0  0  0  0  0  0  0  0  0  0  0
    0.0000   -4.9500    0.0000 C   0  0  0  0  0  0  0  0  0  0  0  0
    0.0000   -4.1250    0.0000 C   0  0  0  0  0  0  0  0  0  0  0  0
    0.7145   -3.7125    0.0000 C   0  0  0  0  0  0  0  0  0  0  0  0
    0.7145   -2.8875    0.0000 C   0  0  0  0  0  0  0  0  0  0  0  0
    1.4289   -2.4750    0.0000 N   0  0  0  0  0  0  0  0  0  0  0  0
    1.4289   -1.6500    0.0000 C   0  0  0  0  0  0  0  0  0  0  0  0
    0.7145   -1.2375    0.0000 C   0  0  0  0  0  0  0  0  0  0  0  0
    0.7145   -0.4125    0.0000 C   0  0  0  0  0  0  0  0  0  0  0  0
    1.4289    0.0000    0.0000 C   0  0  0  0  0  0  0  0  0  0  0  0
    2.1434   -0.4125    0.0000 C   0  0  0  0  0  0  0  0  0  0  0  0
    2.8579    0.0000    0.0000 C   0  0  0  0  0  0  0  0  0  0  0  0
    3.5724   -0.4125    0.0000 C   0  0  0  0  0  0  0  0  0  0  0  0
    3.5724   -1.2375    0.0000 C   0  0  0  0  0  0  0  0  0  0  0  0
    2.8579   -1.6500    0.0000 C   0  0  0  0  0  0  0  0  0  0  0  0
    2.1434   -1.2375    0.0000 C   0  0  0  0  0  0  0  0  0  0  0  0
    1.4289   -4.1250    0.0000 C   0  0  0  0  0  0  0  0  0  0  0  0
    1.4289   -4.9500    0.0000 C   0  0  0  0  0  0  0  0  0  0  0  0
  1  2  2  0  0  0  0
  2  3  1  0  0  0  0
  2  4  1  0  0  0  0
  4  5  4  0  0  0  0
  5  6  4  0  0  0  0
  6  7  4  0  0  0  0
  7  8  1  0  0  0  0
  8  9  2  0  0  0  0
  9 10  1  0  0  0  0
 10 11  4  0  0  0  0
 11 12  4  0  0  0  0
 12 13  4  0  0  0  0
 13 14  4  0  0  0  0
 14 15  4  0  0  0  0
 15 16  4  0  0  0  0
 16 17  4  0  0  0  0
 17 18  4  0  0  0  0
 18 19  4  0  0  0  0
 10 19  4  0  0  0  0
 14 19  4  0  0  0  0
  7 20  4  0  0  0  0
 20 21  4  0  0  0  0
  4 21  4  0  0  0  0
M  END
> <IC50(uM)>
15.62

> <Outcome>
0.0

> <BindingDB ID>
50971928

> <BindingDB MonomerID>
50398636

> <BindingDB Ligand Name>
CHEMBL2177492

> <Curation/DataSource>
ChEMBL

> <Article DOI>
10.1021/jm300630p

> <PMID>
22984987

> <Patent Number>
?

> <Authors>
Diao, Y; Lu, W; Jin, H; Zhu, J; Han, L; Xu, M; Gao, R; Shen, X; Zhao, Z; Liu, X; Xu, Y; Huang, J; Li, H

> <Link to Ligand in BindingDB>
http://www.bindingdb.org/bind/chemsearch/marvin/MolStructure.jsp?monomerid=50398636

> <Link to Ligand-Target Pair in BindingDB>
http://www.bindingdb.org/jsp/dbsearch/PrimarySearch_ki.jsp?energyterm=kJ/mole&tag=r21&monomerid=50398636&enzyme=Dihydroorotate+dehydrogenase&column=ki&startPg=0&Increment=50&submit=Search

> <PubChem CID>
813108

> <PubChem SID>
163347660

$$$$

  Mrv2115 07222212352D          

 37 41  0  0  0  0            999 V2000
   -1.8659    1.4455    0.0000 C   0  0  0  0  0  0  0  0  0  0  0  0
   -2.6909    1.4455    0.0000 C   0  0  0  0  0  0  0  0  0  0  0  0
   -3.1034    0.7310    0.0000 O   0  0  0  0  0  0  0  0  0  0  0  0
   -2.6909    0.0165    0.0000 C   0  0  0  0  0  0  0  0  0  0  0  0
   -1.8659    0.0165    0.0000 C   0  0  0  0  0  0  0  0  0  0  0  0
   -1.4534   -0.6979    0.0000 C   0  0  0  0  0  0  0  0  0  0  0  0
   -0.6284   -0.6979    0.0000 N   0  0  0  0  0  0  0  0  0  0  0  0
   -0.1435   -1.3654    0.0000 N   0  0  0  0  0  0  0  0  0  0  0  0
    0.6411   -1.1104    0.0000 C   0  0  0  0  0  0  0  0  0  0  0  0
    0.6411   -0.2854    0.0000 N   0  0  0  0  0  0  0  0  0  0  0  0
   -0.1435   -0.0305    0.0000 C   0  0  0  0  0  0  0  0  0  0  0  0
   -0.3984    0.7541    0.0000 O   0  0  0  0  0  0  0  0  0  0  0  0
    1.3556    0.1271    0.0000 C   0  0  0  0  0  0  0  0  0  0  0  0
    2.0701   -0.2854    0.0000 C   0  0  0  0  0  0  0  0  0  0  0  0
    2.0701   -1.1104    0.0000 C   0  0  0  0  0  0  0  0  0  0  0  0
    1.3556   -1.5229    0.0000 C   0  0  0  0  0  0  0  0  0  0  0  0
   -1.8659   -1.4124    0.0000 C   0  0  0  0  0  0  0  0  0  0  0  0
   -1.4534   -2.1269    0.0000 F   0  0  0  0  0  0  0  0  0  0  0  0
   -2.6909   -1.4124    0.0000 C   0  0  0  0  0  0  0  0  0  0  0  0
   -3.1034   -0.6979    0.0000 C   0  0  0  0  0  0  0  0  0  0  0  0
   -3.9284   -0.6979    0.0000 C   0  0  0  0  0  0  0  0  0  0  0  0
   -4.3409    0.0165    0.0000 O   0  0  0  0  0  0  0  0  0  0  0  0
   -4.3409   -1.4124    0.0000 N   0  0  0  0  0  0  0  0  0  0  0  0
   -3.9284   -2.1269    0.0000 C   0  0  0  0  0  0  0  0  0  0  0  0
   -3.1034   -2.1269    0.0000 C   0  0  0  0  0  0  0  0  0  0  0  0
   -2.6909   -2.8414    0.0000 C   0  0  0  0  0  0  0  0  0  0  0  0
   -3.1034   -3.5558    0.0000 S   0  0  0  0  0  0  0  0  0  0  0  0
   -2.3282   -3.8380    0.0000 O   0  0  0  0  0  0  0  0  0  0  0  0
   -3.2467   -4.3683    0.0000 O   0  0  0  0  0  0  0  0  0  0  0  0
   -3.9284   -3.5558    0.0000 C   0  0  0  0  0  0  0  0  0  0  0  0
   -4.3409   -2.8414    0.0000 C   0  0  0  0  0  0  0  0  0  0  0  0
   -3.1034    2.1599    0.0000 C   0  0  0  0  0  0  0  0  0  0  0  0
   -3.9284    2.1599    0.0000 C   0  0  0  0  0  0  0  0  0  0  0  0
   -4.3409    2.8744    0.0000 C   0  0  0  0  0  0  0  0  0  0  0  0
   -3.9284    3.5889    0.0000 C   0  0  0  0  0  0  0  0  0  0  0  0
   -3.1034    3.5889    0.0000 C   0  0  0  0  0  0  0  0  0  0  0  0
   -2.6909    2.8744    0.0000 C   0  0  0  0  0  0  0  0  0  0  0  0
  1  2  1  0  0  0  0
  2  3  1  0  0  0  0
  3  4  1  0  0  0  0
  4  5  4  0  0  0  0
  5  6  4  0  0  0  0
  6  7  1  0  0  0  0
  7  8  4  0  0  0  0
  8  9  4  0  0  0  0
  9 10  4  0  0  0  0
 10 11  4  0  0  0  0
  7 11  4  0  0  0  0
 11 12  2  0  0  0  0
 10 13  1  0  0  0  0
 13 14  1  0  0  0  0
 14 15  1  0  0  0  0
 15 16  1  0  0  0  0
  9 16  1  0  0  0  0
  6 17  4  0  0  0  0
 17 18  1  0  0  0  0
 17 19  4  0  0  0  0
 19 20  4  0  0  0  0
  4 20  4  0  0  0  0
 20 21  1  0  0  0  0
 21 22  2  0  0  0  0
 21 23  1  0  0  0  0
 23 24  1  0  0  0  0
 24 25  1  0  0  0  0
 25 26  1  0  0  0  0
 26 27  1  0  0  0  0
 27 28  2  0  0  0  0
 27 29  2  0  0  0  0
 27 30  1  0  0  0  0
 30 31  1  0  0  0  0
 24 31  1  0  0  0  0
  2 32  1  0  0  0  0
 32 33  1  0  0  0  0
 33 34  1  0  0  0  0
 34 35  1  0  0  0  0
 35 36  1  0  0  0  0
 36 37  1  0  0  0  0
 32 37  1  0  0  0  0
M  END
> <IC50(uM)>
1.5

> <Outcome>
0.0

> <BindingDB ID>
1020497

> <BindingDB MonomerID>
490445

> <BindingDB Ligand Name>
2-[(1S)-1-cyclohexylethoxy]-N-(1,1-dioxidotetrahydro-2H-thiopyran-4-yl)-5-fluoro-4-(3-oxo-5,6,7,8-tetrahydro[1,2,4]triazolo[4,3-a]pyridin-2(3H)-yl)benzamide::US10968216, Example 113

> <Curation/DataSource>
US Patent

> <Article DOI>
?

> <PMID>
?

> <Patent Number>
US10968216

> <Authors>
Gradl, SN; Nguyen, D; Eis, K; Gunther, J; Stellfeld, T; Janzer, A; Christian, S; Mueller, T; Sheikh, SE; Zhou, HJ; Zhao, C; Sykes, DB; Ferrara, SJ; Liu, K; Herbert, SA; Merz, C; Niehues, M; Nising, CF; Schafer, M; Zimmermann, K; Knablein, J; Thede, K; Faupel, T

> <Link to Ligand in BindingDB>
http://www.bindingdb.org/bind/chemsearch/marvin/MolStructure.jsp?monomerid=490445

> <Link to Ligand-Target Pair in BindingDB>
http://www.bindingdb.org/jsp/dbsearch/PrimarySearch_ki.jsp?energyterm=kJ/mole&tag=r21&monomerid=490445&enzyme=Dihydroorotate+dehydrogenase&column=ki&startPg=0&Increment=50&submit=Search

> <PubChem CID>
134473883

> <PubChem SID>
447117172

$$$$

  Mrv2115 07222212352D          

 21 23  0  0  0  0            999 V2000
    2.1434   -2.8875    0.0000 O   0  0  0  0  0  0  0  0  0  0  0  0
    1.4289   -2.4750    0.0000 C   0  0  0  0  0  0  0  0  0  0  0  0
    0.7145   -2.8875    0.0000 O   0  0  0  0  0  0  0  0  0  0  0  0
    1.4289   -1.6500    0.0000 C   0  0  0  0  0  0  0  0  0  0  0  0
    0.7145   -1.2375    0.0000 C   0  0  0  0  0  0  0  0  0  0  0  0
    0.7145   -0.4125    0.0000 C   0  0  0  0  0  0  0  0  0  0  0  0
    0.0000    0.0000    0.0000 C   0  0  0  0  0  0  0  0  0  0  0  0
   -0.7145   -0.4125    0.0000 C   0  0  0  0  0  0  0  0  0  0  0  0
   -1.4289    0.0000    0.0000 C   0  0  0  0  0  0  0  0  0  0  0  0
   -1.4289    0.8250    0.0000 C   0  0  0  0  0  0  0  0  0  0  0  0
   -2.1434    1.2375    0.0000 F   0  0  0  0  0  0  0  0  0  0  0  0
   -0.7145    1.2375    0.0000 C   0  0  0  0  0  0  0  0  0  0  0  0
    0.0000    0.8250    0.0000 C   0  0  0  0  0  0  0  0  0  0  0  0
    1.4289    0.0000    0.0000 N   0  0  0  0  0  0  0  0  0  0  0  0
    2.1434   -0.4125    0.0000 C   0  0  0  0  0  0  0  0  0  0  0  0
    2.8579    0.0000    0.0000 C   0  0  0  0  0  0  0  0  0  0  0  0
    3.5724   -0.4125    0.0000 C   0  0  0  0  0  0  0  0  0  0  0  0
    3.5724   -1.2375    0.0000 C   0  0  0  0  0  0  0  0  0  0  0  0
    4.2868   -1.6500    0.0000 Cl  0  0  0  0  0  0  0  0  0  0  0  0
    2.8579   -1.6500    0.0000 C   0  0  0  0  0  0  0  0  0  0  0  0
    2.1434   -1.2375    0.0000 C   0  0  0  0  0  0  0  0  0  0  0  0
  1  2  2  0  0  0  0
  2  3  1  0  0  0  0
  2  4  1  0  0  0  0
  4  5  4  0  0  0  0
  5  6  4  0  0  0  0
  6  7  1  0  0  0  0
  7  8  4  0  0  0  0
  8  9  4  0  0  0  0
  9 10  4  0  0  0  0
 10 11  1  0  0  0  0
 10 12  4  0  0  0  0
 12 13  4  0  0  0  0
  7 13  4  0  0  0  0
  6 14  4  0  0  0  0
 14 15  4  0  0  0  0
 15 16  4  0  0  0  0
 16 17  4  0  0  0  0
 17 18  4  0  0  0  0
 18 19  1  0  0  0  0
 18 20  4  0  0  0  0
 20 21  4  0  0  0  0
  4 21  4  0  0  0  0
 15 21  4  0  0  0  0
M  END
> <IC50(uM)>
1.6

> <Outcome>
0.0

> <BindingDB ID>
51064010

> <BindingDB MonomerID>
50434234

> <BindingDB Ligand Name>
CHEMBL2385720

> <Curation/DataSource>
ChEMBL

> <Article DOI>
10.1021/ml300464h

> <PMID>
23930152

> <Patent Number>
?

> <Authors>
Das, P; Deng, X; Zhang, L; Roth, MG; Fontoura, BM; Phillips, MA; De Brabander, JK

> <Link to Ligand in BindingDB>
http://www.bindingdb.org/bind/chemsearch/marvin/MolStructure.jsp?monomerid=50434234

> <Link to Ligand-Target Pair in BindingDB>
http://www.bindingdb.org/jsp/dbsearch/PrimarySearch_ki.jsp?energyterm=kJ/mole&tag=r21&monomerid=50434234&enzyme=Dihydroorotate+dehydrogenase&column=ki&startPg=0&Increment=50&submit=Search

> <PubChem CID>
3899945

> <PubChem SID>
175446551

$$$$

  Mrv2115 07222212352D          

 19 21  0  0  0  0            999 V2000
    4.0668    2.3479    0.0000 C   0  0  0  0  0  0  0  0  0  0  0  0
    3.3523    1.9354    0.0000 C   0  0  0  0  0  0  0  0  0  0  0  0
    3.3523    1.1104    0.0000 C   0  0  0  0  0  0  0  0  0  0  0  0
    2.6378    0.6979    0.0000 C   0  0  0  0  0  0  0  0  0  0  0  0
    2.6378   -0.1271    0.0000 O   0  0  0  0  0  0  0  0  0  0  0  0
    1.9233    1.1104    0.0000 N   0  0  0  0  0  0  0  0  0  0  0  0
    1.1387    0.8555    0.0000 N   0  0  0  0  0  0  0  0  0  0  0  0
    0.6538    1.5229    0.0000 C   0  0  0  0  0  0  0  0  0  0  0  0
   -0.1712    1.5229    0.0000 S   0  0  0  0  0  0  0  0  0  0  0  0
   -0.5837    0.8085    0.0000 C   0  0  0  0  0  0  0  0  0  0  0  0
   -1.4087    0.8085    0.0000 C   0  0  0  0  0  0  0  0  0  0  0  0
   -1.8212    0.0940    0.0000 C   0  0  0  0  0  0  0  0  0  0  0  0
   -2.6462    0.0940    0.0000 C   0  0  0  0  0  0  0  0  0  0  0  0
   -3.0587    0.8085    0.0000 C   0  0  0  0  0  0  0  0  0  0  0  0
   -2.6462    1.5229    0.0000 C   0  0  0  0  0  0  0  0  0  0  0  0
   -1.8212    1.5229    0.0000 C   0  0  0  0  0  0  0  0  0  0  0  0
    1.1387    2.1904    0.0000 N   0  0  0  0  0  0  0  0  0  0  0  0
    1.9233    1.9354    0.0000 C   0  0  0  0  0  0  0  0  0  0  0  0
    2.6378    2.3479    0.0000 N   0  0  0  0  0  0  0  0  0  0  0  0
  1  2  1  0  0  0  0
  2  3  4  0  0  0  0
  3  4  4  0  0  0  0
  4  5  2  0  0  0  0
  4  6  4  0  0  0  0
  6  7  4  0  0  0  0
  7  8  4  0  0  0  0
  8  9  1  0  0  0  0
  9 10  1  0  0  0  0
 10 11  1  0  0  0  0
 11 12  4  0  0  0  0
 12 13  4  0  0  0  0
 13 14  4  0  0  0  0
 14 15  4  0  0  0  0
 15 16  4  0  0  0  0
 11 16  4  0  0  0  0
  8 17  4  0  0  0  0
 17 18  4  0  0  0  0
  6 18  4  0  0  0  0
 18 19  4  0  0  0  0
  2 19  4  0  0  0  0
M  STY  1   1 DAT
M  SAL   1  1   7
M  SDT   1 MRV_IMPLICIT_H                                        
M  SDD   1     0.5304   -0.4125    DR    ALL  0       0  
M  SED   1 IMPL_H1
M  END
> <IC50(uM)>
89.0

> <Outcome>
0.0

> <BindingDB ID>
50970249

> <BindingDB MonomerID>
50397822

> <BindingDB Ligand Name>
CHEMBL135703

> <Curation/DataSource>
ChEMBL

> <Article DOI>
10.1021/jm300157n

> <PMID>
22621375

> <Patent Number>
?

> <Authors>
Bedingfield, PT; Cowen, D; Acklam, P; Cunningham, F; Parsons, MR; McConkey, GA; Fishwick, CW; Johnson, AP

> <Link to Ligand in BindingDB>
http://www.bindingdb.org/bind/chemsearch/marvin/MolStructure.jsp?monomerid=50397822

> <Link to Ligand-Target Pair in BindingDB>
http://www.bindingdb.org/jsp/dbsearch/PrimarySearch_ki.jsp?energyterm=kJ/mole&tag=r21&monomerid=50397822&enzyme=Dihydroorotate+dehydrogenase&column=ki&startPg=0&Increment=50&submit=Search

> <PubChem CID>
1965647

> <PubChem SID>
163346846

$$$$

  Mrv2115 07222212352D          

 35 38  0  0  0  0            999 V2000
   -5.3959    1.4686    0.0000 C   0  0  0  0  0  0  0  0  0  0  0  0
   -5.6509    0.6840    0.0000 C   0  0  0  0  0  0  0  0  0  0  0  0
   -6.4355    0.4290    0.0000 N   0  0  0  0  0  0  0  0  0  0  0  0
   -6.4355   -0.3960    0.0000 N   0  0  0  0  0  0  0  0  0  0  0  0
   -7.1029   -0.8809    0.0000 C   0  0  0  0  0  0  0  0  0  0  0  0
   -5.6509   -0.6509    0.0000 C   0  0  0  0  0  0  0  0  0  0  0  0
   -5.3959   -1.4355    0.0000 C   0  0  0  0  0  0  0  0  0  0  0  0
   -5.1659    0.0165    0.0000 C   0  0  0  0  0  0  0  0  0  0  0  0
   -4.3409    0.0165    0.0000 N   0  0  0  0  0  0  0  0  0  0  0  0
   -3.9284   -0.6979    0.0000 C   0  0  0  0  0  0  0  0  0  0  0  0
   -4.3409   -1.4124    0.0000 O   0  0  0  0  0  0  0  0  0  0  0  0
   -3.1034   -0.6979    0.0000 C   0  0  0  0  0  0  0  0  0  0  0  0
   -2.6909    0.0165    0.0000 C   0  0  0  0  0  0  0  0  0  0  0  0
   -1.8659    0.0165    0.0000 C   0  0  0  0  0  0  0  0  0  0  0  0
   -1.4534    0.7310    0.0000 F   0  0  0  0  0  0  0  0  0  0  0  0
   -1.4534   -0.6979    0.0000 C   0  0  0  0  0  0  0  0  0  0  0  0
   -0.6284   -0.6979    0.0000 N   0  0  0  0  0  0  0  0  0  0  0  0
   -0.1435   -1.3654    0.0000 N   0  0  0  0  0  0  0  0  0  0  0  0
    0.6411   -1.1104    0.0000 C   0  0  0  0  0  0  0  0  0  0  0  0
    0.6411   -0.2854    0.0000 N   0  0  0  0  0  0  0  0  0  0  0  0
   -0.1435   -0.0305    0.0000 C   0  0  0  0  0  0  0  0  0  0  0  0
   -0.3984    0.7541    0.0000 O   0  0  0  0  0  0  0  0  0  0  0  0
    1.3556    0.1271    0.0000 C   0  0  0  0  0  0  0  0  0  0  0  0
    2.0701   -0.2854    0.0000 C   0  0  0  0  0  0  0  0  0  0  0  0
    2.0701   -1.1104    0.0000 C   0  0  0  0  0  0  0  0  0  0  0  0
    1.3556   -1.5229    0.0000 C   0  0  0  0  0  0  0  0  0  0  0  0
   -1.8659   -1.4124    0.0000 C   0  0  0  0  0  0  0  0  0  0  0  0
   -2.6909   -1.4124    0.0000 C   0  0  0  0  0  0  0  0  0  0  0  0
   -3.1034   -2.1269    0.0000 O   0  0  0  0  0  0  0  0  0  0  0  0
   -2.6909   -2.8414    0.0000 C   0  0  0  0  0  0  0  0  0  0  0  0
   -1.8659   -2.8414    0.0000 C   0  0  0  0  0  0  0  0  0  0  0  0
   -3.1034   -3.5558    0.0000 C   0  0  0  0  0  0  0  0  0  0  0  0
   -3.8179   -3.1433    0.0000 F   0  0  0  0  0  0  0  0  0  0  0  0
   -2.3890   -3.9683    0.0000 F   0  0  0  0  0  0  0  0  0  0  0  0
   -3.5159   -4.2703    0.0000 F   0  0  0  0  0  0  0  0  0  0  0  0
  1  2  1  0  0  0  0
  2  3  4  0  0  0  0
  3  4  4  0  0  0  0
  4  5  1  0  0  0  0
  4  6  4  0  0  0  0
  6  7  1  0  0  0  0
  6  8  4  0  0  0  0
  2  8  4  0  0  0  0
  8  9  1  0  0  0  0
  9 10  1  0  0  0  0
 10 11  2  0  0  0  0
 10 12  1  0  0  0  0
 12 13  4  0  0  0  0
 13 14  4  0  0  0  0
 14 15  1  0  0  0  0
 14 16  4  0  0  0  0
 16 17  1  0  0  0  0
 17 18  4  0  0  0  0
 18 19  4  0  0  0  0
 19 20  4  0  0  0  0
 20 21  4  0  0  0  0
 17 21  4  0  0  0  0
 21 22  2  0  0  0  0
 20 23  1  0  0  0  0
 23 24  1  0  0  0  0
 24 25  1  0  0  0  0
 25 26  1  0  0  0  0
 19 26  1  0  0  0  0
 16 27  4  0  0  0  0
 27 28  4  0  0  0  0
 12 28  4  0  0  0  0
 28 29  1  0  0  0  0
 29 30  1  0  0  0  0
 30 31  1  0  0  0  0
 30 32  1  0  0  0  0
 32 33  1  0  0  0  0
 32 34  1  0  0  0  0
 32 35  1  0  0  0  0
M  END
> <IC50(uM)>
0.43

> <Outcome>
1.0

> <BindingDB ID>
1020415

> <BindingDB MonomerID>
490366

> <BindingDB Ligand Name>
5-fluoro-4-(3-oxo-5,6,7,8-tetrahydro[1,2,4]triazolo[4,3-a]pyridin-2(3H)-yl)-2-{[(2S)-1,1,1-trifluoropropan-2-yl]oxy}-N-(1,3,5-trimethyl-1H-pyrazol-4-yl)benzamide::US10968216, Example 34

> <Curation/DataSource>
US Patent

> <Article DOI>
?

> <PMID>
?

> <Patent Number>
US10968216

> <Authors>
Gradl, SN; Nguyen, D; Eis, K; Gunther, J; Stellfeld, T; Janzer, A; Christian, S; Mueller, T; Sheikh, SE; Zhou, HJ; Zhao, C; Sykes, DB; Ferrara, SJ; Liu, K; Herbert, SA; Merz, C; Niehues, M; Nising, CF; Schafer, M; Zimmermann, K; Knablein, J; Thede, K; Faupel, T

> <Link to Ligand in BindingDB>
http://www.bindingdb.org/bind/chemsearch/marvin/MolStructure.jsp?monomerid=490366

> <Link to Ligand-Target Pair in BindingDB>
http://www.bindingdb.org/jsp/dbsearch/PrimarySearch_ki.jsp?energyterm=kJ/mole&tag=r21&monomerid=490366&enzyme=Dihydroorotate+dehydrogenase&column=ki&startPg=0&Increment=50&submit=Search

> <PubChem CID>
134474296

> <PubChem SID>
447117093

$$$$

  Mrv2115 07222212352D          

 37 41  0  0  0  0            999 V2000
   -0.6284    2.1599    0.0000 C   0  0  0  0  0  0  0  0  0  0  0  0
   -1.4534    2.1599    0.0000 C   0  0  0  0  0  0  0  0  0  0  0  0
   -1.8659    1.4455    0.0000 C   0  0  0  0  0  0  0  0  0  0  0  0
   -2.6909    1.4455    0.0000 C   0  0  0  0  0  0  0  0  0  0  0  0
   -3.1034    2.1599    0.0000 C   0  0  0  0  0  0  0  0  0  0  0  0
   -3.1034    0.7310    0.0000 O   0  0  0  0  0  0  0  0  0  0  0  0
   -2.6909    0.0165    0.0000 C   0  0  0  0  0  0  0  0  0  0  0  0
   -1.8659    0.0165    0.0000 C   0  0  0  0  0  0  0  0  0  0  0  0
   -1.4534   -0.6979    0.0000 C   0  0  0  0  0  0  0  0  0  0  0  0
   -0.6284   -0.6979    0.0000 N   0  0  0  0  0  0  0  0  0  0  0  0
   -0.1435   -1.3654    0.0000 N   0  0  0  0  0  0  0  0  0  0  0  0
    0.6411   -1.1104    0.0000 C   0  0  0  0  0  0  0  0  0  0  0  0
    0.6411   -0.2854    0.0000 N   0  0  0  0  0  0  0  0  0  0  0  0
   -0.1435   -0.0305    0.0000 C   0  0  0  0  0  0  0  0  0  0  0  0
   -0.3984    0.7541    0.0000 O   0  0  0  0  0  0  0  0  0  0  0  0
    1.3556    0.1271    0.0000 C   0  0  0  0  0  0  0  0  0  0  0  0
    2.0701   -0.2854    0.0000 C   0  0  0  0  0  0  0  0  0  0  0  0
    2.0701   -1.1104    0.0000 C   0  0  0  0  0  0  0  0  0  0  0  0
    1.3556   -1.5229    0.0000 C   0  0  0  0  0  0  0  0  0  0  0  0
   -1.8659   -1.4124    0.0000 C   0  0  0  0  0  0  0  0  0  0  0  0
   -1.4534   -2.1269    0.0000 F   0  0  0  0  0  0  0  0  0  0  0  0
   -2.6909   -1.4124    0.0000 C   0  0  0  0  0  0  0  0  0  0  0  0
   -3.1034   -0.6979    0.0000 C   0  0  0  0  0  0  0  0  0  0  0  0
   -3.9284   -0.6979    0.0000 C   0  0  0  0  0  0  0  0  0  0  0  0
   -4.3409    0.0165    0.0000 O   0  0  0  0  0  0  0  0  0  0  0  0
   -4.3409   -1.4124    0.0000 N   0  0  0  0  0  0  0  0  0  0  0  0
   -3.9284   -2.1269    0.0000 C   0  0  0  0  0  0  0  0  0  0  0  0
   -3.1034   -2.1269    0.0000 C   0  0  0  0  0  0  0  0  0  0  0  0
   -2.6909   -2.8414    0.0000 C   0  0  0  0  0  0  0  0  0  0  0  0
   -3.1034   -3.5558    0.0000 N   0  0  0  0  0  0  0  0  0  0  0  0
   -2.6909   -4.2703    0.0000 C   0  0  0  0  0  0  0  0  0  0  0  0
   -1.8659   -4.2703    0.0000 O   0  0  0  0  0  0  0  0  0  0  0  0
   -3.1034   -4.9848    0.0000 C   0  0  0  0  0  0  0  0  0  0  0  0
   -3.1034   -5.8098    0.0000 C   0  0  0  0  0  0  0  0  0  0  0  0
   -3.8179   -5.3973    0.0000 C   0  0  0  0  0  0  0  0  0  0  0  0
   -3.9284   -3.5558    0.0000 C   0  0  0  0  0  0  0  0  0  0  0  0
   -4.3409   -2.8414    0.0000 C   0  0  0  0  0  0  0  0  0  0  0  0
  1  2  1  0  0  0  0
  2  3  1  0  0  0  0
  3  4  1  0  0  0  0
  4  5  1  0  0  0  0
  4  6  1  0  0  0  0
  6  7  1  0  0  0  0
  7  8  4  0  0  0  0
  8  9  4  0  0  0  0
  9 10  1  0  0  0  0
 10 11  4  0  0  0  0
 11 12  4  0  0  0  0
 12 13  4  0  0  0  0
 13 14  4  0  0  0  0
 10 14  4  0  0  0  0
 14 15  2  0  0  0  0
 13 16  1  0  0  0  0
 16 17  1  0  0  0  0
 17 18  1  0  0  0  0
 18 19  1  0  0  0  0
 12 19  1  0  0  0  0
  9 20  4  0  0  0  0
 20 21  1  0  0  0  0
 20 22  4  0  0  0  0
 22 23  4  0  0  0  0
  7 23  4  0  0  0  0
 23 24  1  0  0  0  0
 24 25  2  0  0  0  0
 24 26  1  0  0  0  0
 26 27  1  0  0  0  0
 27 28  1  0  0  0  0
 28 29  1  0  0  0  0
 29 30  1  0  0  0  0
 30 31  1  0  0  0  0
 31 32  2  0  0  0  0
 31 33  1  0  0  0  0
 33 34  1  0  0  0  0
 34 35  1  0  0  0  0
 33 35  1  0  0  0  0
 30 36  1  0  0  0  0
 36 37  1  0  0  0  0
 27 37  1  0  0  0  0
M  END
> <IC50(uM)>
0.45

> <Outcome>
1.0

> <BindingDB ID>
1020396

> <BindingDB MonomerID>
490352

> <BindingDB Ligand Name>
N-[1-(cyclopropylcarbonyl) piperidin-4-yl]-5-fluoro-4-(3-oxo-5,6,7,8-tetrahydro[1,2,4]triazolo[4,3-a]pyridin-2(3H)-yl)-2-[(2S)-pentan-2-yloxy]benzamide::US10968216, Example 20

> <Curation/DataSource>
US Patent

> <Article DOI>
?

> <PMID>
?

> <Patent Number>
US10968216

> <Authors>
Gradl, SN; Nguyen, D; Eis, K; Gunther, J; Stellfeld, T; Janzer, A; Christian, S; Mueller, T; Sheikh, SE; Zhou, HJ; Zhao, C; Sykes, DB; Ferrara, SJ; Liu, K; Herbert, SA; Merz, C; Niehues, M; Nising, CF; Schafer, M; Zimmermann, K; Knablein, J; Thede, K; Faupel, T

> <Link to Ligand in BindingDB>
http://www.bindingdb.org/bind/chemsearch/marvin/MolStructure.jsp?monomerid=490352

> <Link to Ligand-Target Pair in BindingDB>
http://www.bindingdb.org/jsp/dbsearch/PrimarySearch_ki.jsp?energyterm=kJ/mole&tag=r21&monomerid=490352&enzyme=Dihydroorotate+dehydrogenase&column=ki&startPg=0&Increment=50&submit=Search

> <PubChem CID>
134473919

> <PubChem SID>
447117079

$$$$

  Mrv2115 07222212352D          

 36 38  0  0  0  0            999 V2000
    2.1434   -3.7125    0.0000 C   0  0  0  0  0  0  0  0  0  0  0  0
    1.4289   -4.1250    0.0000 C   0  0  0  0  0  0  0  0  0  0  0  0
    1.4289   -4.9500    0.0000 N   0  0  0  0  0  0  0  0  0  0  0  0
    0.7615   -5.4349    0.0000 C   0  0  0  0  0  0  0  0  0  0  0  0
   -0.0231   -5.1800    0.0000 C   0  0  0  0  0  0  0  0  0  0  0  0
   -0.1946   -4.3730    0.0000 O   0  0  0  0  0  0  0  0  0  0  0  0
    1.0164   -6.2195    0.0000 N   0  0  0  0  0  0  0  0  0  0  0  0
    1.8414   -6.2195    0.0000 N   0  0  0  0  0  0  0  0  0  0  0  0
    2.3264   -6.8870    0.0000 C   0  0  0  0  0  0  0  0  0  0  0  0
    3.1468   -6.8007    0.0000 C   0  0  0  0  0  0  0  0  0  0  0  0
    3.6318   -7.4682    0.0000 C   0  0  0  0  0  0  0  0  0  0  0  0
    4.4522   -7.3820    0.0000 O   0  0  0  0  0  0  0  0  0  0  0  0
    4.7878   -6.6283    0.0000 C   0  0  0  0  0  0  0  0  0  0  0  0
    4.3029   -5.9608    0.0000 C   0  0  0  0  0  0  0  0  0  0  0  0
    5.6083   -6.5420    0.0000 C   0  0  0  0  0  0  0  0  0  0  0  0
    5.6945   -7.3625    0.0000 F   0  0  0  0  0  0  0  0  0  0  0  0
    5.5221   -5.7216    0.0000 F   0  0  0  0  0  0  0  0  0  0  0  0
    6.4288   -6.4558    0.0000 F   0  0  0  0  0  0  0  0  0  0  0  0
    3.2962   -8.2219    0.0000 C   0  0  0  0  0  0  0  0  0  0  0  0
    3.7811   -8.8893    0.0000 C   0  0  0  0  0  0  0  0  0  0  0  0
    3.4456   -9.6430    0.0000 O   0  0  0  0  0  0  0  0  0  0  0  0
    4.6016   -8.8031    0.0000 N   0  0  0  0  0  0  0  0  0  0  0  0
    5.0865   -9.4705    0.0000 C   0  0  0  0  0  0  0  0  0  0  0  0
    5.9070   -9.3843    0.0000 C   0  0  0  0  0  0  0  0  0  0  0  0
    6.2426   -8.6306    0.0000 F   0  0  0  0  0  0  0  0  0  0  0  0
    6.3919  -10.0517    0.0000 C   0  0  0  0  0  0  0  0  0  0  0  0
    6.0564  -10.8054    0.0000 C   0  0  0  0  0  0  0  0  0  0  0  0
    5.2359  -10.8916    0.0000 C   0  0  0  0  0  0  0  0  0  0  0  0
    4.9003  -11.6453    0.0000 O   0  0  0  0  0  0  0  0  0  0  0  0
    4.7510  -10.2242    0.0000 C   0  0  0  0  0  0  0  0  0  0  0  0
    3.9305  -10.3104    0.0000 Cl  0  0  0  0  0  0  0  0  0  0  0  0
    2.4757   -8.3081    0.0000 C   0  0  0  0  0  0  0  0  0  0  0  0
    1.9908   -7.6407    0.0000 C   0  0  0  0  0  0  0  0  0  0  0  0
    1.1703   -7.7269    0.0000 F   0  0  0  0  0  0  0  0  0  0  0  0
    2.0964   -5.4349    0.0000 C   0  0  0  0  0  0  0  0  0  0  0  0
    2.8810   -5.1800    0.0000 O   0  0  0  0  0  0  0  0  0  0  0  0
  1  2  1  0  0  0  0
  2  3  1  0  0  0  0
  3  4  4  0  0  0  0
  4  5  1  0  0  0  0
  5  6  1  0  0  0  0
  4  7  4  0  0  0  0
  7  8  4  0  0  0  0
  8  9  1  0  0  0  0
  9 10  4  0  0  0  0
 10 11  4  0  0  0  0
 11 12  1  0  0  0  0
 12 13  1  0  0  0  0
 13 14  1  0  0  0  0
 13 15  1  0  0  0  0
 15 16  1  0  0  0  0
 15 17  1  0  0  0  0
 15 18  1  0  0  0  0
 11 19  4  0  0  0  0
 19 20  1  0  0  0  0
 20 21  2  0  0  0  0
 20 22  1  0  0  0  0
 22 23  1  0  0  0  0
 23 24  4  0  0  0  0
 24 25  1  0  0  0  0
 24 26  4  0  0  0  0
 26 27  4  0  0  0  0
 27 28  4  0  0  0  0
 28 29  1  0  0  0  0
 28 30  4  0  0  0  0
 23 30  4  0  0  0  0
 30 31  1  0  0  0  0
 19 32  4  0  0  0  0
 32 33  4  0  0  0  0
  9 33  4  0  0  0  0
 33 34  1  0  0  0  0
  8 35  4  0  0  0  0
  3 35  4  0  0  0  0
 35 36  2  0  0  0  0
M  END
> <IC50(uM)>
0.0052

> <Outcome>
1.0

> <BindingDB ID>
972656; 1098810

> <BindingDB MonomerID>
470534

> <BindingDB Ligand Name>
N-(2-chloro-6-fluoro-3-hydroxyphenyl)-4-[4-ethyl-3-(hydroxymethyl)-5-oxo-4,5-dihydro-1H-1,2,4-triazol-1-yl]-5-fluoro-2-{[(2S)-1,1,1-trifluoropropan-2-yl]oxy}benzamide::US10815215, Example 194; N-(2-chloro-6-fluoro-3-hydroxyphenyl)-4-[4-ethyl-3-(hydroxymethyl)-5-oxo-4,5-dihydro-1H-1,2,4-triazol-1-yl]-5-fluoro-2-{[(2S)-1,1,1-trifluoropropan-2-yl]oxy}benzamide::US10815215, Example 194::US11130745, Example 194

> <Curation/DataSource>
US Patent

> <Article DOI>
?

> <PMID>
?

> <Patent Number>
US10815215; US11130745

> <Authors>
Gradl, SN; Nguyen, D; Eis, K; Gunther, J; Stellfeld, T; Janzer, A; Christian, S; Muller, T; Sheikh, SE; Zhou, HJ; Zhao, C; Sykes, DB; Ferrara, SJ; Liu, K; Krober, M; Merz, C; Niehues, M; Schafer, M; Zimmermann, K; Nising, CF; Gradl, SN; Nguyen, D; Eis, K; Gunther, J; Stellfeld, T; Janzer, A; Christian, S; Muller, T; Sheikh, SE; Sykes, DB; Ferrara, SJ; Krober, M; Merz, C; Niehues, M; Schafer, M; Zimmermann, K; Nising, CF

> <Link to Ligand in BindingDB>
http://www.bindingdb.org/bind/chemsearch/marvin/MolStructure.jsp?monomerid=470534

> <Link to Ligand-Target Pair in BindingDB>
http://www.bindingdb.org/jsp/dbsearch/PrimarySearch_ki.jsp?energyterm=kJ/mole&tag=r21&monomerid=470534&enzyme=Dihydroorotate+dehydrogenase&column=ki&startPg=0&Increment=50&submit=Search

> <PubChem CID>
134470268

> <PubChem SID>
441609710

$$$$

  Mrv2115 07222212352D          

 28 32  0  0  0  0            999 V2000
    2.5559   -1.8243    0.0000 O   0  0  0  0  0  0  0  0  0  0  0  0
    2.5559   -2.6493    0.0000 C   0  0  0  0  0  0  0  0  0  0  0  0
    1.8414   -3.0618    0.0000 O   0  0  0  0  0  0  0  0  0  0  0  0
    3.2704   -3.0618    0.0000 C   0  0  0  0  0  0  0  0  0  0  0  0
    3.2704   -3.8868    0.0000 C   0  0  0  0  0  0  0  0  0  0  0  0
    3.9849   -4.2993    0.0000 C   0  0  0  0  0  0  0  0  0  0  0  0
    3.9849   -5.1243    0.0000 C   0  0  0  0  0  0  0  0  0  0  0  0
    4.3974   -5.8388    0.0000 C   0  0  0  0  0  0  0  0  0  0  0  0
    3.5724   -5.8388    0.0000 C   0  0  0  0  0  0  0  0  0  0  0  0
    4.6993   -3.8868    0.0000 C   0  0  0  0  0  0  0  0  0  0  0  0
    4.6993   -3.0618    0.0000 C   0  0  0  0  0  0  0  0  0  0  0  0
    3.9849   -2.6493    0.0000 C   0  0  0  0  0  0  0  0  0  0  0  0
    3.9849   -1.8243    0.0000 N   0  0  0  0  0  0  0  0  0  0  0  0
    4.6993   -1.4118    0.0000 C   0  0  0  0  0  0  0  0  0  0  0  0
    4.6993   -0.5868    0.0000 C   0  0  0  0  0  0  0  0  0  0  0  0
    5.4138   -0.1743    0.0000 N   0  0  0  0  0  0  0  0  0  0  0  0
    6.1283   -0.5868    0.0000 C   0  0  0  0  0  0  0  0  0  0  0  0
    6.8427   -0.1743    0.0000 C   0  0  0  0  0  0  0  0  0  0  0  0
    6.8427    0.6507    0.0000 C   0  0  0  0  0  0  0  0  0  0  0  0
    7.5572    1.0632    0.0000 C   0  0  0  0  0  0  0  0  0  0  0  0
    8.2717    0.6507    0.0000 C   0  0  0  0  0  0  0  0  0  0  0  0
    8.2717   -0.1743    0.0000 C   0  0  0  0  0  0  0  0  0  0  0  0
    7.5572   -0.5868    0.0000 C   0  0  0  0  0  0  0  0  0  0  0  0
    7.5572   -1.4118    0.0000 C   0  0  0  0  0  0  0  0  0  0  0  0
    7.9697   -2.1263    0.0000 C   0  0  0  0  0  0  0  0  0  0  0  0
    7.1447   -2.1263    0.0000 C   0  0  0  0  0  0  0  0  0  0  0  0
    6.1283   -1.4118    0.0000 N   0  0  0  0  0  0  0  0  0  0  0  0
    5.4138   -1.8243    0.0000 C   0  0  0  0  0  0  0  0  0  0  0  0
  1  2  2  0  0  0  0
  2  3  1  0  0  0  0
  2  4  1  0  0  0  0
  4  5  4  0  0  0  0
  5  6  4  0  0  0  0
  6  7  1  0  0  0  0
  7  8  1  0  0  0  0
  8  9  1  0  0  0  0
  7  9  1  0  0  0  0
  6 10  4  0  0  0  0
 10 11  4  0  0  0  0
 11 12  4  0  0  0  0
  4 12  4  0  0  0  0
 12 13  1  0  0  0  0
 13 14  1  0  0  0  0
 14 15  4  0  0  0  0
 15 16  4  0  0  0  0
 16 17  4  0  0  0  0
 17 18  1  0  0  0  0
 18 19  4  0  0  0  0
 19 20  4  0  0  0  0
 20 21  4  0  0  0  0
 21 22  4  0  0  0  0
 22 23  4  0  0  0  0
 18 23  4  0  0  0  0
 23 24  1  0  0  0  0
 24 25  1  0  0  0  0
 25 26  1  0  0  0  0
 24 26  1  0  0  0  0
 17 27  4  0  0  0  0
 27 28  4  0  0  0  0
 14 28  4  0  0  0  0
M  END
> <IC50(uM)>
0.057

> <Outcome>
1.0

> <BindingDB ID>
219981

> <BindingDB MonomerID>
102451

> <BindingDB Ligand Name>
US8536165, 14

> <Curation/DataSource>
US Patent

> <Article DOI>
?

> <PMID>
?

> <Patent Number>
US8536165

> <Authors>
Castro Palomino Laria, JC; Terricabras Belart, E; Erra Sola, M; Navarro Romero, E; Fonquerna Pou, S; Cardus Figueras, A; Lozoya Toribio, ME

> <Link to Ligand in BindingDB>
http://www.bindingdb.org/bind/chemsearch/marvin/MolStructure.jsp?monomerid=102451

> <Link to Ligand-Target Pair in BindingDB>
http://www.bindingdb.org/jsp/dbsearch/PrimarySearch_ki.jsp?energyterm=kJ/mole&tag=r21&monomerid=102451&enzyme=Dihydroorotate+dehydrogenase&column=ki&startPg=0&Increment=50&submit=Search

> <PubChem CID>
25186719

> <PubChem SID>
172097742

$$$$

  Mrv2115 07222212352D          

 24 26  0  0  0  0            999 V2000
    2.8579   -2.4750    0.0000 O   0  0  0  0  0  0  0  0  0  0  0  0
    2.1434   -2.8875    0.0000 C   0  0  0  0  0  0  0  0  0  0  0  0
    1.4289   -2.4750    0.0000 O   0  0  0  0  0  0  0  0  0  0  0  0
    2.1434   -3.7125    0.0000 C   0  0  0  0  0  0  0  0  0  0  0  0
    1.4289   -4.1250    0.0000 C   0  0  0  0  0  0  0  0  0  0  0  0
    1.4289   -4.9500    0.0000 C   0  0  0  0  0  0  0  0  0  0  0  0
    0.7145   -5.3625    0.0000 Cl  0  0  0  0  0  0  0  0  0  0  0  0
    2.1434   -5.3625    0.0000 C   0  0  0  0  0  0  0  0  0  0  0  0
    2.8579   -4.9500    0.0000 C   0  0  0  0  0  0  0  0  0  0  0  0
    2.8579   -4.1250    0.0000 C   0  0  0  0  0  0  0  0  0  0  0  0
    3.5724   -3.7125    0.0000 N   0  0  0  0  0  0  0  0  0  0  0  0
    4.2868   -4.1250    0.0000 C   0  0  0  0  0  0  0  0  0  0  0  0
    5.0013   -3.7125    0.0000 C   0  0  0  0  0  0  0  0  0  0  0  0
    5.7158   -4.1250    0.0000 C   0  0  0  0  0  0  0  0  0  0  0  0
    5.7158   -4.9500    0.0000 C   0  0  0  0  0  0  0  0  0  0  0  0
    6.4302   -5.3625    0.0000 C   0  0  0  0  0  0  0  0  0  0  0  0
    7.1447   -4.9500    0.0000 C   0  0  0  0  0  0  0  0  0  0  0  0
    7.8592   -5.3625    0.0000 C   0  0  0  0  0  0  0  0  0  0  0  0
    7.8592   -6.1875    0.0000 C   0  0  0  0  0  0  0  0  0  0  0  0
    7.1447   -6.6000    0.0000 C   0  0  0  0  0  0  0  0  0  0  0  0
    6.4302   -6.1875    0.0000 C   0  0  0  0  0  0  0  0  0  0  0  0
    5.7158   -6.6000    0.0000 Cl  0  0  0  0  0  0  0  0  0  0  0  0
    5.0013   -5.3625    0.0000 N   0  0  0  0  0  0  0  0  0  0  0  0
    4.2868   -4.9500    0.0000 C   0  0  0  0  0  0  0  0  0  0  0  0
  1  2  2  0  0  0  0
  2  3  1  0  0  0  0
  2  4  1  0  0  0  0
  4  5  4  0  0  0  0
  5  6  4  0  0  0  0
  6  7  1  0  0  0  0
  6  8  4  0  0  0  0
  8  9  4  0  0  0  0
  9 10  4  0  0  0  0
  4 10  4  0  0  0  0
 10 11  1  0  0  0  0
 11 12  1  0  0  0  0
 12 13  4  0  0  0  0
 13 14  4  0  0  0  0
 14 15  4  0  0  0  0
 15 16  1  0  0  0  0
 16 17  4  0  0  0  0
 17 18  4  0  0  0  0
 18 19  4  0  0  0  0
 19 20  4  0  0  0  0
 20 21  4  0  0  0  0
 16 21  4  0  0  0  0
 21 22  1  0  0  0  0
 15 23  4  0  0  0  0
 23 24  4  0  0  0  0
 12 24  4  0  0  0  0
M  END
> <IC50(uM)>
0.145

> <Outcome>
1.0

> <BindingDB ID>
220014

> <BindingDB MonomerID>
102484

> <BindingDB Ligand Name>
US8536165, 84

> <Curation/DataSource>
US Patent

> <Article DOI>
?

> <PMID>
?

> <Patent Number>
US8536165

> <Authors>
Castro Palomino Laria, JC; Terricabras Belart, E; Erra Sola, M; Navarro Romero, E; Fonquerna Pou, S; Cardus Figueras, A; Lozoya Toribio, ME

> <Link to Ligand in BindingDB>
http://www.bindingdb.org/bind/chemsearch/marvin/MolStructure.jsp?monomerid=102484

> <Link to Ligand-Target Pair in BindingDB>
http://www.bindingdb.org/jsp/dbsearch/PrimarySearch_ki.jsp?energyterm=kJ/mole&tag=r21&monomerid=102484&enzyme=Dihydroorotate+dehydrogenase&column=ki&startPg=0&Increment=50&submit=Search

> <PubChem CID>
57479004

> <PubChem SID>
172097775

$$$$

  Mrv2115 07222212352D          

 30 31  0  0  0  0            999 V2000
   -2.1434   -1.2375    0.0000 C   0  0  0  0  0  0  0  0  0  0  0  0
   -1.4289   -1.6500    0.0000 C   0  0  0  0  0  0  0  0  0  0  0  0
   -0.7145   -1.2375    0.0000 C   0  0  0  0  0  0  0  0  0  0  0  0
    0.0000   -1.6500    0.0000 C   0  0  0  0  0  0  0  0  0  0  0  0
    0.0000   -2.4750    0.0000 C   0  0  0  0  0  0  0  0  0  0  0  0
    0.7145   -1.2375    0.0000 O   0  0  0  0  0  0  0  0  0  0  0  0
    0.7145   -0.4125    0.0000 C   0  0  0  0  0  0  0  0  0  0  0  0
    0.0000    0.0000    0.0000 C   0  0  0  0  0  0  0  0  0  0  0  0
    0.0000    0.8250    0.0000 C   0  0  0  0  0  0  0  0  0  0  0  0
   -0.7145    1.2375    0.0000 N   0  0  0  0  0  0  0  0  0  0  0  0
   -1.4681    0.9019    0.0000 N   0  0  0  0  0  0  0  0  0  0  0  0
   -2.0202    1.5150    0.0000 C   0  0  0  0  0  0  0  0  0  0  0  0
   -2.8407    1.4288    0.0000 C   0  0  0  0  0  0  0  0  0  0  0  0
   -3.3256    2.0962    0.0000 C   0  0  0  0  0  0  0  0  0  0  0  0
   -1.6077    2.2295    0.0000 N   0  0  0  0  0  0  0  0  0  0  0  0
   -1.9432    2.9832    0.0000 C   0  0  0  0  0  0  0  0  0  0  0  0
   -0.8007    2.0580    0.0000 C   0  0  0  0  0  0  0  0  0  0  0  0
   -0.1876    2.6100    0.0000 O   0  0  0  0  0  0  0  0  0  0  0  0
    0.7145    1.2375    0.0000 C   0  0  0  0  0  0  0  0  0  0  0  0
    0.7145    2.0625    0.0000 F   0  0  0  0  0  0  0  0  0  0  0  0
    1.4289    0.8250    0.0000 C   0  0  0  0  0  0  0  0  0  0  0  0
    1.4289    0.0000    0.0000 C   0  0  0  0  0  0  0  0  0  0  0  0
    2.1434   -0.4125    0.0000 C   0  0  0  0  0  0  0  0  0  0  0  0
    2.8579    0.0000    0.0000 O   0  0  0  0  0  0  0  0  0  0  0  0
    2.1434   -1.2375    0.0000 N   0  0  0  0  0  0  0  0  0  0  0  0
    2.8579   -1.6500    0.0000 C   0  0  0  0  0  0  0  0  0  0  0  0
    2.8579   -2.4750    0.0000 C   0  0  0  0  0  0  0  0  0  0  0  0
    3.5724   -2.8875    0.0000 C   0  0  0  0  0  0  0  0  0  0  0  0
    3.5724   -1.2375    0.0000 C   0  0  0  0  0  0  0  0  0  0  0  0
    3.5724   -0.4125    0.0000 C   0  0  0  0  0  0  0  0  0  0  0  0
  1  2  2  0  0  0  0
  2  3  1  0  0  0  0
  3  4  1  0  0  0  0
  4  5  1  0  0  0  0
  4  6  1  0  0  0  0
  6  7  1  0  0  0  0
  7  8  4  0  0  0  0
  8  9  4  0  0  0  0
  9 10  1  0  0  0  0
 10 11  4  0  0  0  0
 11 12  4  0  0  0  0
 12 13  1  0  0  0  0
 13 14  1  0  0  0  0
 12 15  4  0  0  0  0
 15 16  1  0  0  0  0
 15 17  4  0  0  0  0
 10 17  4  0  0  0  0
 17 18  2  0  0  0  0
  9 19  4  0  0  0  0
 19 20  1  0  0  0  0
 19 21  4  0  0  0  0
 21 22  4  0  0  0  0
  7 22  4  0  0  0  0
 22 23  1  0  0  0  0
 23 24  2  0  0  0  0
 23 25  1  0  0  0  0
 25 26  1  0  0  0  0
 26 27  1  0  0  0  0
 27 28  1  0  0  0  0
 26 29  1  0  0  0  0
 29 30  1  0  0  0  0
M  END
> <IC50(uM)>
0.005849999999999999

> <Outcome>
1.0

> <BindingDB ID>
1098787; 972633; 1098788; 972634

> <BindingDB MonomerID>
470513

> <BindingDB Ligand Name>
4-(3-ethyl-4-methyl-5-oxo-4,5-dihydro-1H-1,2,4-triazol-1-yl)-5-fluoro-N-(pentan-3-yl)-2-(pent-4-en-2-yloxy)benzamide, Mixture of Stereoisomers::US10815215, Example 172::US11130745, Example 172; 4-(3-ethyl-4-methyl-5-oxo-4,5-dihydro-1H-1,2,4-triazol-1-yl)-5-fluoro-N-(pentan-3-yl)-2-(pent-4-en-2-yloxy)benzamide, Mixture of Stereoisomers::US10815215, Example 172

> <Curation/DataSource>
US Patent

> <Article DOI>
?

> <PMID>
?

> <Patent Number>
US11130745; US10815215

> <Authors>
Gradl, SN; Nguyen, D; Eis, K; Gunther, J; Stellfeld, T; Janzer, A; Christian, S; Muller, T; Sheikh, SE; Sykes, DB; Ferrara, SJ; Krober, M; Merz, C; Niehues, M; Schafer, M; Zimmermann, K; Nising, CF; Gradl, SN; Nguyen, D; Eis, K; Gunther, J; Stellfeld, T; Janzer, A; Christian, S; Muller, T; Sheikh, SE; Zhou, HJ; Zhao, C; Sykes, DB; Ferrara, SJ; Liu, K; Krober, M; Merz, C; Niehues, M; Schafer, M; Zimmermann, K; Nising, CF

> <Link to Ligand in BindingDB>
http://www.bindingdb.org/bind/chemsearch/marvin/MolStructure.jsp?monomerid=470513

> <Link to Ligand-Target Pair in BindingDB>
http://www.bindingdb.org/jsp/dbsearch/PrimarySearch_ki.jsp?energyterm=kJ/mole&tag=r21&monomerid=470513&enzyme=Dihydroorotate+dehydrogenase&column=ki&startPg=0&Increment=50&submit=Search

> <PubChem CID>
134469943

> <PubChem SID>
441609690

$$$$

  Mrv2115 07222212352D          

 31 35  0  0  0  0            999 V2000
    3.3523   -0.2854    0.0000 O   0  0  0  0  0  0  0  0  0  0  0  0
    3.3523   -1.1104    0.0000 C   0  0  0  0  0  0  0  0  0  0  0  0
    4.0668   -1.5229    0.0000 C   0  0  0  0  0  0  0  0  0  0  0  0
    4.7812   -1.1104    0.0000 C   0  0  0  0  0  0  0  0  0  0  0  0
    5.4957   -1.5229    0.0000 C   0  0  0  0  0  0  0  0  0  0  0  0
    5.4957   -2.3479    0.0000 C   0  0  0  0  0  0  0  0  0  0  0  0
    6.2102   -2.7604    0.0000 F   0  0  0  0  0  0  0  0  0  0  0  0
    4.7812   -2.7604    0.0000 C   0  0  0  0  0  0  0  0  0  0  0  0
    4.0668   -2.3479    0.0000 C   0  0  0  0  0  0  0  0  0  0  0  0
    3.3523   -2.7604    0.0000 C   0  0  0  0  0  0  0  0  0  0  0  0
    3.3523   -3.5854    0.0000 O   0  0  0  0  0  0  0  0  0  0  0  0
    2.6378   -2.3479    0.0000 C   0  0  0  0  0  0  0  0  0  0  0  0
    2.6378   -1.5229    0.0000 C   0  0  0  0  0  0  0  0  0  0  0  0
    1.8532   -1.2680    0.0000 N   0  0  0  0  0  0  0  0  0  0  0  0
    1.3683   -1.9354    0.0000 N   0  0  0  0  0  0  0  0  0  0  0  0
    1.8532   -2.6029    0.0000 N   0  0  0  0  0  0  0  0  0  0  0  0
    1.5983   -3.3875    0.0000 C   0  0  0  0  0  0  0  0  0  0  0  0
    2.1503   -4.0006    0.0000 C   0  0  0  0  0  0  0  0  0  0  0  0
    1.8953   -4.7852    0.0000 C   0  0  0  0  0  0  0  0  0  0  0  0
    2.4474   -5.3983    0.0000 F   0  0  0  0  0  0  0  0  0  0  0  0
    1.0884   -4.9567    0.0000 C   0  0  0  0  0  0  0  0  0  0  0  0
    0.8334   -5.7414    0.0000 C   0  0  0  0  0  0  0  0  0  0  0  0
    1.3855   -6.3545    0.0000 C   0  0  0  0  0  0  0  0  0  0  0  0
    1.1305   -7.1391    0.0000 C   0  0  0  0  0  0  0  0  0  0  0  0
    0.3236   -7.3106    0.0000 C   0  0  0  0  0  0  0  0  0  0  0  0
   -0.2285   -6.6975    0.0000 C   0  0  0  0  0  0  0  0  0  0  0  0
    0.0265   -5.9129    0.0000 C   0  0  0  0  0  0  0  0  0  0  0  0
   -0.5256   -5.2998    0.0000 F   0  0  0  0  0  0  0  0  0  0  0  0
    0.5363   -4.3437    0.0000 C   0  0  0  0  0  0  0  0  0  0  0  0
   -0.2706   -4.5152    0.0000 F   0  0  0  0  0  0  0  0  0  0  0  0
    0.7913   -3.5590    0.0000 C   0  0  0  0  0  0  0  0  0  0  0  0
  1  2  2  0  0  0  0
  2  3  1  0  0  0  0
  3  4  4  0  0  0  0
  4  5  4  0  0  0  0
  5  6  4  0  0  0  0
  6  7  1  0  0  0  0
  6  8  4  0  0  0  0
  8  9  4  0  0  0  0
  3  9  4  0  0  0  0
  9 10  1  0  0  0  0
 10 11  2  0  0  0  0
 10 12  1  0  0  0  0
 12 13  4  0  0  0  0
  2 13  1  0  0  0  0
 13 14  4  0  0  0  0
 14 15  4  0  0  0  0
 15 16  4  0  0  0  0
 12 16  4  0  0  0  0
 16 17  1  0  0  0  0
 17 18  4  0  0  0  0
 18 19  4  0  0  0  0
 19 20  1  0  0  0  0
 19 21  4  0  0  0  0
 21 22  1  0  0  0  0
 22 23  4  0  0  0  0
 23 24  4  0  0  0  0
 24 25  4  0  0  0  0
 25 26  4  0  0  0  0
 26 27  4  0  0  0  0
 22 27  4  0  0  0  0
 27 28  1  0  0  0  0
 21 29  4  0  0  0  0
 29 30  1  0  0  0  0
 29 31  4  0  0  0  0
 17 31  4  0  0  0  0
M  END
> <IC50(uM)>
0.152

> <Outcome>
1.0

> <BindingDB ID>
51338212

> <BindingDB MonomerID>
50541686

> <BindingDB Ligand Name>
CHEMBL4643209

> <Curation/DataSource>
ChEMBL

> <Article DOI>
10.1021/acs.jmedchem.0c00512

> <PMID>
32496056

> <Patent Number>
?

> <Authors>
Zuo, Z; Liu, X; Qian, X; Zeng, T; Sang, N; Liu, H; Zhou, Y; Tao, L; Zhou, X; Su, N; Yu, Y; Chen, Q; Luo, Y; Zhao, Y

> <Link to Ligand in BindingDB>
http://www.bindingdb.org/bind/chemsearch/marvin/MolStructure.jsp?monomerid=50541686

> <Link to Ligand-Target Pair in BindingDB>
http://www.bindingdb.org/jsp/dbsearch/PrimarySearch_ki.jsp?energyterm=kJ/mole&tag=r21&monomerid=50541686&enzyme=Dihydroorotate+dehydrogenase&column=ki&startPg=0&Increment=50&submit=Search

> <PubChem CID>
156018886

> <PubChem SID>
442143249

$$$$

  Mrv2115 07222212352D          

 16 17  0  0  0  0            999 V2000
    1.3222   -0.0616    0.0000 C   0  0  0  0  0  0  0  0  0  0  0  0
    2.0367   -0.4741    0.0000 C   0  0  0  0  0  0  0  0  0  0  0  0
    2.7512   -0.0616    0.0000 O   0  0  0  0  0  0  0  0  0  0  0  0
    2.0367   -1.2991    0.0000 C   0  0  0  0  0  0  0  0  0  0  0  0
    2.7041   -1.7840    0.0000 S   0  0  0  0  0  0  0  0  0  0  0  0
    2.4492   -2.5687    0.0000 C   0  0  0  0  0  0  0  0  0  0  0  0
    2.9341   -3.2361    0.0000 N   0  0  0  0  0  0  0  0  0  0  0  0
    2.5986   -3.9898    0.0000 C   0  0  0  0  0  0  0  0  0  0  0  0
    3.0835   -4.6572    0.0000 C   0  0  0  0  0  0  0  0  0  0  0  0
    2.7479   -5.4109    0.0000 C   0  0  0  0  0  0  0  0  0  0  0  0
    1.9275   -5.4971    0.0000 C   0  0  0  0  0  0  0  0  0  0  0  0
    1.4425   -4.8297    0.0000 C   0  0  0  0  0  0  0  0  0  0  0  0
    1.7781   -4.0760    0.0000 C   0  0  0  0  0  0  0  0  0  0  0  0
    1.6242   -2.5687    0.0000 N   0  0  0  0  0  0  0  0  0  0  0  0
    1.3693   -1.7840    0.0000 C   0  0  0  0  0  0  0  0  0  0  0  0
    0.5846   -1.5291    0.0000 C   0  0  0  0  0  0  0  0  0  0  0  0
  1  2  1  0  0  0  0
  2  3  2  0  0  0  0
  2  4  1  0  0  0  0
  4  5  4  0  0  0  0
  5  6  4  0  0  0  0
  6  7  1  0  0  0  0
  7  8  1  0  0  0  0
  8  9  4  0  0  0  0
  9 10  4  0  0  0  0
 10 11  4  0  0  0  0
 11 12  4  0  0  0  0
 12 13  4  0  0  0  0
  8 13  4  0  0  0  0
  6 14  4  0  0  0  0
 14 15  4  0  0  0  0
  4 15  4  0  0  0  0
 15 16  1  0  0  0  0
M  END
> <IC50(uM)>
10.0

> <Outcome>
0.0

> <BindingDB ID>
50312487

> <BindingDB MonomerID>
50071795

> <BindingDB Ligand Name>
CHEMBL1235108

> <Curation/DataSource>
ChEMBL

> <Article DOI>
10.1021/jm501127s

> <PMID>
25580811

> <Patent Number>
?

> <Authors>
Zhu, J; Han, L; Diao, Y; Ren, X; Xu, M; Xu, L; Li, S; Li, Q; Dong, D; Huang, J; Liu, X; Zhao, Z; Wang, R; Zhu, L; Xu, Y; Qian, X; Li, H

> <Link to Ligand in BindingDB>
http://www.bindingdb.org/bind/chemsearch/marvin/MolStructure.jsp?monomerid=50071795

> <Link to Ligand-Target Pair in BindingDB>
http://www.bindingdb.org/jsp/dbsearch/PrimarySearch_ki.jsp?energyterm=kJ/mole&tag=r21&monomerid=50071795&enzyme=Dihydroorotate+dehydrogenase&column=ki&startPg=0&Increment=50&submit=Search

> <PubChem CID>
735838

> <PubChem SID>
103965505

$$$$

  Mrv2115 07222212352D          

 37 39  0  0  0  0            999 V2000
    0.7145   -3.7125    0.0000 C   0  0  0  0  0  0  0  0  0  0  0  0
    0.0000   -4.1250    0.0000 C   0  0  0  0  0  0  0  0  0  0  0  0
    0.0000   -4.9500    0.0000 N   0  0  0  0  0  0  0  0  0  0  0  0
   -0.6674   -5.4349    0.0000 C   0  0  0  0  0  0  0  0  0  0  0  0
   -1.4521   -5.1800    0.0000 C   0  0  0  0  0  0  0  0  0  0  0  0
   -1.6236   -4.3730    0.0000 O   0  0  0  0  0  0  0  0  0  0  0  0
   -0.4125   -6.2195    0.0000 N   0  0  0  0  0  0  0  0  0  0  0  0
    0.4125   -6.2195    0.0000 N   0  0  0  0  0  0  0  0  0  0  0  0
    0.8974   -6.8870    0.0000 C   0  0  0  0  0  0  0  0  0  0  0  0
    1.7179   -6.8007    0.0000 C   0  0  0  0  0  0  0  0  0  0  0  0
    2.2028   -7.4682    0.0000 C   0  0  0  0  0  0  0  0  0  0  0  0
    3.0233   -7.3820    0.0000 O   0  0  0  0  0  0  0  0  0  0  0  0
    3.3589   -6.6283    0.0000 C   0  0  0  0  0  0  0  0  0  0  0  0
    2.8739   -5.9608    0.0000 C   0  0  0  0  0  0  0  0  0  0  0  0
    4.1793   -6.5420    0.0000 C   0  0  0  0  0  0  0  0  0  0  0  0
    4.2656   -7.3625    0.0000 F   0  0  0  0  0  0  0  0  0  0  0  0
    4.0931   -5.7216    0.0000 F   0  0  0  0  0  0  0  0  0  0  0  0
    4.9998   -6.4558    0.0000 F   0  0  0  0  0  0  0  0  0  0  0  0
    1.8673   -8.2219    0.0000 C   0  0  0  0  0  0  0  0  0  0  0  0
    2.3522   -8.8893    0.0000 C   0  0  0  0  0  0  0  0  0  0  0  0
    3.1727   -8.8031    0.0000 O   0  0  0  0  0  0  0  0  0  0  0  0
    2.0166   -9.6430    0.0000 N   0  0  0  0  0  0  0  0  0  0  0  0
    2.5016  -10.3104    0.0000 C   0  0  0  0  0  0  0  0  0  0  0  0
    3.3220  -10.2242    0.0000 C   0  0  0  0  0  0  0  0  0  0  0  0
    3.6576   -9.4705    0.0000 F   0  0  0  0  0  0  0  0  0  0  0  0
    3.8070  -10.8916    0.0000 C   0  0  0  0  0  0  0  0  0  0  0  0
    3.4714  -11.6453    0.0000 C   0  0  0  0  0  0  0  0  0  0  0  0
    2.6509  -11.7315    0.0000 C   0  0  0  0  0  0  0  0  0  0  0  0
    2.3154  -12.4852    0.0000 O   0  0  0  0  0  0  0  0  0  0  0  0
    2.8003  -13.1526    0.0000 C   0  0  0  0  0  0  0  0  0  0  0  0
    2.1660  -11.0641    0.0000 C   0  0  0  0  0  0  0  0  0  0  0  0
    1.3455  -11.1503    0.0000 Cl  0  0  0  0  0  0  0  0  0  0  0  0
    1.0468   -8.3081    0.0000 C   0  0  0  0  0  0  0  0  0  0  0  0
    0.5619   -7.6407    0.0000 C   0  0  0  0  0  0  0  0  0  0  0  0
   -0.2586   -7.7269    0.0000 F   0  0  0  0  0  0  0  0  0  0  0  0
    0.6674   -5.4349    0.0000 C   0  0  0  0  0  0  0  0  0  0  0  0
    1.4521   -5.1800    0.0000 O   0  0  0  0  0  0  0  0  0  0  0  0
  1  2  1  0  0  0  0
  2  3  1  0  0  0  0
  3  4  4  0  0  0  0
  4  5  1  0  0  0  0
  5  6  1  0  0  0  0
  4  7  4  0  0  0  0
  7  8  4  0  0  0  0
  8  9  1  0  0  0  0
  9 10  4  0  0  0  0
 10 11  4  0  0  0  0
 11 12  1  0  0  0  0
 12 13  1  0  0  0  0
 13 14  1  0  0  0  0
 13 15  1  0  0  0  0
 15 16  1  0  0  0  0
 15 17  1  0  0  0  0
 15 18  1  0  0  0  0
 11 19  4  0  0  0  0
 19 20  1  0  0  0  0
 20 21  2  0  0  0  0
 20 22  1  0  0  0  0
 22 23  1  0  0  0  0
 23 24  4  0  0  0  0
 24 25  1  0  0  0  0
 24 26  4  0  0  0  0
 26 27  4  0  0  0  0
 27 28  4  0  0  0  0
 28 29  1  0  0  0  0
 29 30  1  0  0  0  0
 28 31  4  0  0  0  0
 23 31  4  0  0  0  0
 31 32  1  0  0  0  0
 19 33  4  0  0  0  0
 33 34  4  0  0  0  0
  9 34  4  0  0  0  0
 34 35  1  0  0  0  0
  8 36  4  0  0  0  0
  3 36  4  0  0  0  0
 36 37  2  0  0  0  0
M  END
> <IC50(uM)>
0.0052

> <Outcome>
1.0

> <BindingDB ID>
1098809; 972655

> <BindingDB MonomerID>
470533

> <BindingDB Ligand Name>
N-(2-chloro-6-fluoro-3-methoxyphenyl)-4-[4-ethyl-3-(hydroxymethyl)-5-oxo-4,5-dihydro-1H-1,2,4-triazol-1-yl]-5-fluoro-2-{[(2S)-1,1,1-trifluoropropan-2-yl]oxy}benzamide::US10815215, Example 193::US11130745, Example 193; N-(2-chloro-6-fluoro-3-methoxyphenyl)-4-[4-ethyl-3-(hydroxymethyl)-5-oxo-4,5-dihydro-1H-1,2,4-triazol-1-yl]-5-fluoro-2-{[(2S)-1,1,1-trifluoropropan-2-yl]oxy}benzamide::US10815215, Example 193

> <Curation/DataSource>
US Patent

> <Article DOI>
?

> <PMID>
?

> <Patent Number>
US11130745; US10815215

> <Authors>
Gradl, SN; Nguyen, D; Eis, K; Gunther, J; Stellfeld, T; Janzer, A; Christian, S; Muller, T; Sheikh, SE; Sykes, DB; Ferrara, SJ; Krober, M; Merz, C; Niehues, M; Schafer, M; Zimmermann, K; Nising, CF; Gradl, SN; Nguyen, D; Eis, K; Gunther, J; Stellfeld, T; Janzer, A; Christian, S; Muller, T; Sheikh, SE; Zhou, HJ; Zhao, C; Sykes, DB; Ferrara, SJ; Liu, K; Krober, M; Merz, C; Niehues, M; Schafer, M; Zimmermann, K; Nising, CF

> <Link to Ligand in BindingDB>
http://www.bindingdb.org/bind/chemsearch/marvin/MolStructure.jsp?monomerid=470533

> <Link to Ligand-Target Pair in BindingDB>
http://www.bindingdb.org/jsp/dbsearch/PrimarySearch_ki.jsp?energyterm=kJ/mole&tag=r21&monomerid=470533&enzyme=Dihydroorotate+dehydrogenase&column=ki&startPg=0&Increment=50&submit=Search

> <PubChem CID>
134470318

> <PubChem SID>
441609709

$$$$

  Mrv2115 07222212352D          

 27 29  0  0  0  0            999 V2000
   -0.7145    2.0625    0.0000 C   0  0  0  0  0  0  0  0  0  0  0  0
   -0.7145    1.2375    0.0000 O   0  0  0  0  0  0  0  0  0  0  0  0
    0.0000    0.8250    0.0000 C   0  0  0  0  0  0  0  0  0  0  0  0
    0.0000   -0.0000    0.0000 O   0  0  0  0  0  0  0  0  0  0  0  0
    0.7145   -0.4125    0.0000 C   0  0  0  0  0  0  0  0  0  0  0  0
    1.4289    0.0000    0.0000 C   0  0  0  0  0  0  0  0  0  0  0  0
    2.1434   -0.4125    0.0000 C   0  0  0  0  0  0  0  0  0  0  0  0
    2.8579    0.0000    0.0000 C   0  0  0  0  0  0  0  0  0  0  0  0
    3.5724   -0.4125    0.0000 C   0  0  0  0  0  0  0  0  0  0  0  0
    3.5724   -1.2375    0.0000 C   0  0  0  0  0  0  0  0  0  0  0  0
    2.8579   -1.6500    0.0000 C   0  0  0  0  0  0  0  0  0  0  0  0
    2.1434   -1.2375    0.0000 C   0  0  0  0  0  0  0  0  0  0  0  0
    1.4289   -1.6500    0.0000 C   0  0  0  0  0  0  0  0  0  0  0  0
    0.7145   -1.2375    0.0000 C   0  0  0  0  0  0  0  0  0  0  0  0
    0.0000   -1.6500    0.0000 C   0  0  0  0  0  0  0  0  0  0  0  0
    0.0000   -2.4750    0.0000 C   0  0  0  0  0  0  0  0  0  0  0  0
   -0.7145   -2.8875    0.0000 C   0  0  0  0  0  0  0  0  0  0  0  0
   -1.4289   -2.4750    0.0000 C   0  0  0  0  0  0  0  0  0  0  0  0
   -1.4289   -1.6500    0.0000 C   0  0  0  0  0  0  0  0  0  0  0  0
   -0.7145   -1.2375    0.0000 O   0  0  0  0  0  0  0  0  0  0  0  0
   -2.1434   -1.2375    0.0000 O   0  0  0  0  0  0  0  0  0  0  0  0
   -2.1434   -2.8875    0.0000 N   0  0  0  0  0  0  0  0  0  0  0  0
   -2.1434   -3.7125    0.0000 C   0  0  0  0  0  0  0  0  0  0  0  0
   -2.8579   -4.1250    0.0000 O   0  0  0  0  0  0  0  0  0  0  0  0
   -1.4289   -4.1250    0.0000 N   0  0  0  0  0  0  0  0  0  0  0  0
   -0.7145   -3.7125    0.0000 C   0  0  0  0  0  0  0  0  0  0  0  0
    0.0000   -4.1250    0.0000 O   0  0  0  0  0  0  0  0  0  0  0  0
  1  2  1  0  0  0  0
  2  3  1  0  0  0  0
  3  4  1  0  0  0  0
  4  5  1  0  0  0  0
  5  6  4  0  0  0  0
  6  7  4  0  0  0  0
  7  8  4  0  0  0  0
  8  9  4  0  0  0  0
  9 10  4  0  0  0  0
 10 11  4  0  0  0  0
 11 12  4  0  0  0  0
  7 12  4  0  0  0  0
 12 13  4  0  0  0  0
 13 14  4  0  0  0  0
  5 14  4  0  0  0  0
 14 15  1  0  0  0  0
 15 16  1  0  0  0  0
 16 17  1  0  0  0  0
 17 18  4  0  0  0  0
 18 19  1  0  0  0  0
 19 20  2  0  0  0  0
 19 21  1  0  0  0  0
 18 22  4  0  0  0  0
 22 23  4  0  0  0  0
 23 24  2  0  0  0  0
 23 25  4  0  0  0  0
 25 26  4  0  0  0  0
 17 26  4  0  0  0  0
 26 27  2  0  0  0  0
M  STY  2   1 DAT   2 DAT
M  SAL   1  1  22
M  SDT   1 MRV_IMPLICIT_H                                        
M  SDD   1     0.5304   -0.4125    DR    ALL  0       0  
M  SED   1 IMPL_H1
M  SAL   2  1  25
M  SDT   2 MRV_IMPLICIT_H                                        
M  SDD   2     0.6482   -0.4125    DR    ALL  0       0  
M  SED   2 IMPL_H1
M  END
> <IC50(uM)>
0.044

> <Outcome>
1.0

> <BindingDB ID>
50555279

> <BindingDB MonomerID>
50211712

> <BindingDB Ligand Name>
CHEMBL3905364

> <Curation/DataSource>
ChEMBL

> <Article DOI>
10.1016/j.bmc.2017.01.009

> <PMID>
28118956

> <Patent Number>
?

> <Authors>
Inaoka, DK; Iida, M; Hashimoto, S; Tabuchi, T; Kuranaga, T; Balogun, EO; Honma, T; Tanaka, A; Harada, S; Nara, T; Kita, K; Inoue, M

> <Link to Ligand in BindingDB>
http://www.bindingdb.org/bind/chemsearch/marvin/MolStructure.jsp?monomerid=50211712

> <Link to Ligand-Target Pair in BindingDB>
http://www.bindingdb.org/jsp/dbsearch/PrimarySearch_ki.jsp?energyterm=kJ/mole&tag=r21&monomerid=50211712&enzyme=Dihydroorotate+dehydrogenase&column=ki&startPg=0&Increment=50&submit=Search

> <PubChem CID>
134135152

> <PubChem SID>
375983055

$$$$

  Mrv2115 07222212352D          

 28 31  0  0  0  0            999 V2000
   -2.6462    0.7310    0.0000 C   0  0  0  0  0  0  0  0  0  0  0  0
   -1.8212    0.7310    0.0000 O   0  0  0  0  0  0  0  0  0  0  0  0
   -1.4087    0.0165    0.0000 C   0  0  0  0  0  0  0  0  0  0  0  0
   -0.5837    0.0165    0.0000 C   0  0  0  0  0  0  0  0  0  0  0  0
   -0.1712   -0.6979    0.0000 C   0  0  0  0  0  0  0  0  0  0  0  0
    0.6538   -0.6979    0.0000 C   0  0  0  0  0  0  0  0  0  0  0  0
    1.1387   -0.0305    0.0000 N   0  0  0  0  0  0  0  0  0  0  0  0
    1.9233   -0.2854    0.0000 C   0  0  0  0  0  0  0  0  0  0  0  0
    2.6378    0.1271    0.0000 C   0  0  0  0  0  0  0  0  0  0  0  0
    2.6378    0.9521    0.0000 C   0  0  0  0  0  0  0  0  0  0  0  0
    3.3523    1.3646    0.0000 O   0  0  0  0  0  0  0  0  0  0  0  0
    1.9233    1.3646    0.0000 O   0  0  0  0  0  0  0  0  0  0  0  0
    3.3523   -0.2854    0.0000 C   0  0  0  0  0  0  0  0  0  0  0  0
    3.3523   -1.1104    0.0000 C   0  0  0  0  0  0  0  0  0  0  0  0
    2.6378   -1.5229    0.0000 C   0  0  0  0  0  0  0  0  0  0  0  0
    1.9233   -1.1104    0.0000 C   0  0  0  0  0  0  0  0  0  0  0  0
    1.1387   -1.3654    0.0000 N   0  0  0  0  0  0  0  0  0  0  0  0
   -0.5837   -1.4124    0.0000 C   0  0  0  0  0  0  0  0  0  0  0  0
   -1.4087   -1.4124    0.0000 C   0  0  0  0  0  0  0  0  0  0  0  0
   -1.8212   -2.1269    0.0000 O   0  0  0  0  0  0  0  0  0  0  0  0
   -2.6462   -2.1269    0.0000 C   0  0  0  0  0  0  0  0  0  0  0  0
   -1.8212   -0.6979    0.0000 C   0  0  0  0  0  0  0  0  0  0  0  0
   -2.6462   -0.6979    0.0000 C   0  0  0  0  0  0  0  0  0  0  0  0
   -3.0587   -1.4124    0.0000 C   0  0  0  0  0  0  0  0  0  0  0  0
   -3.8837   -1.4124    0.0000 C   0  0  0  0  0  0  0  0  0  0  0  0
   -4.2962   -0.6979    0.0000 C   0  0  0  0  0  0  0  0  0  0  0  0
   -3.8837    0.0165    0.0000 C   0  0  0  0  0  0  0  0  0  0  0  0
   -3.0587    0.0165    0.0000 C   0  0  0  0  0  0  0  0  0  0  0  0
  1  2  1  0  0  0  0
  2  3  1  0  0  0  0
  3  4  4  0  0  0  0
  4  5  4  0  0  0  0
  5  6  1  0  0  0  0
  6  7  4  0  0  0  0
  7  8  4  0  0  0  0
  8  9  4  0  0  0  0
  9 10  1  0  0  0  0
 10 11  2  0  0  0  0
 10 12  1  0  0  0  0
  9 13  4  0  0  0  0
 13 14  4  0  0  0  0
 14 15  4  0  0  0  0
 15 16  4  0  0  0  0
  8 16  4  0  0  0  0
 16 17  4  0  0  0  0
  6 17  4  0  0  0  0
  5 18  4  0  0  0  0
 18 19  4  0  0  0  0
 19 20  1  0  0  0  0
 20 21  1  0  0  0  0
 19 22  4  0  0  0  0
  3 22  4  0  0  0  0
 22 23  1  0  0  0  0
 23 24  4  0  0  0  0
 24 25  4  0  0  0  0
 25 26  4  0  0  0  0
 26 27  4  0  0  0  0
 27 28  4  0  0  0  0
 23 28  4  0  0  0  0
M  STY  1   1 DAT
M  SAL   1  1  17
M  SDT   1 MRV_IMPLICIT_H                                        
M  SDD   1     0.5304   -0.4125    DR    ALL  0       0  
M  SED   1 IMPL_H1
M  END
> <IC50(uM)>
0.975

> <Outcome>
1.0

> <BindingDB ID>
297754

> <BindingDB MonomerID>
155410

> <BindingDB Ligand Name>
US9006454, I20

> <Curation/DataSource>
US Patent

> <Article DOI>
?

> <PMID>
?

> <Patent Number>
US9006454

> <Authors>
Thunuguntla, SS; Subramanya, H; Kunnam, SR; Sanivaru Vijay, SR; Bingi, C; Kusanur, R; Schwarz, M; Arlt, M

> <Link to Ligand in BindingDB>
http://www.bindingdb.org/bind/chemsearch/marvin/MolStructure.jsp?monomerid=155410

> <Link to Ligand-Target Pair in BindingDB>
http://www.bindingdb.org/jsp/dbsearch/PrimarySearch_ki.jsp?energyterm=kJ/mole&tag=r21&monomerid=155410&enzyme=Dihydroorotate+dehydrogenase&column=ki&startPg=0&Increment=50&submit=Search

> <PubChem CID>
46945990

> <PubChem SID>
253658347

$$$$

  Mrv2115 07222212352D          

 35 38  0  0  0  0            999 V2000
    0.5269   -3.0225    0.0000 C   0  0  0  0  0  0  0  0  0  0  0  0
   -0.0862   -2.4705    0.0000 C   0  0  0  0  0  0  0  0  0  0  0  0
   -0.8932   -2.6420    0.0000 N   0  0  0  0  0  0  0  0  0  0  0  0
   -1.3057   -1.9275    0.0000 N   0  0  0  0  0  0  0  0  0  0  0  0
   -0.7537   -1.3144    0.0000 C   0  0  0  0  0  0  0  0  0  0  0  0
   -0.9252   -0.5075    0.0000 C   0  0  0  0  0  0  0  0  0  0  0  0
   -1.0967    0.2995    0.0000 F   0  0  0  0  0  0  0  0  0  0  0  0
   -1.7322   -0.6790    0.0000 F   0  0  0  0  0  0  0  0  0  0  0  0
   -0.1182   -0.3359    0.0000 F   0  0  0  0  0  0  0  0  0  0  0  0
    0.0000   -1.6500    0.0000 C   0  0  0  0  0  0  0  0  0  0  0  0
    0.7145   -1.2375    0.0000 C   0  0  0  0  0  0  0  0  0  0  0  0
    0.7145   -0.4125    0.0000 C   0  0  0  0  0  0  0  0  0  0  0  0
    1.4289    0.0000    0.0000 C   0  0  0  0  0  0  0  0  0  0  0  0
    1.4289    0.8250    0.0000 C   0  0  0  0  0  0  0  0  0  0  0  0
    2.1434    1.2375    0.0000 C   0  0  0  0  0  0  0  0  0  0  0  0
    0.7145    1.2375    0.0000 C   0  0  0  0  0  0  0  0  0  0  0  0
    2.1434   -0.4125    0.0000 C   0  0  0  0  0  0  0  0  0  0  0  0
    2.8579    0.0000    0.0000 C   0  0  0  0  0  0  0  0  0  0  0  0
    3.5724   -0.4125    0.0000 C   0  0  0  0  0  0  0  0  0  0  0  0
    4.2868   -0.0000    0.0000 C   0  0  0  0  0  0  0  0  0  0  0  0
    4.3731    0.8205    0.0000 C   0  0  0  0  0  0  0  0  0  0  0  0
    5.1800    0.9920    0.0000 N   0  0  0  0  0  0  0  0  0  0  0  0
    5.5156    1.7457    0.0000 C   0  0  0  0  0  0  0  0  0  0  0  0
    5.5925    0.2775    0.0000 C   0  0  0  0  0  0  0  0  0  0  0  0
    6.4130    0.1913    0.0000 C   0  0  0  0  0  0  0  0  0  0  0  0
    7.2335    0.1051    0.0000 C   0  0  0  0  0  0  0  0  0  0  0  0
    6.3268   -0.6292    0.0000 C   0  0  0  0  0  0  0  0  0  0  0  0
    6.4993    1.0118    0.0000 O   0  0  0  0  0  0  0  0  0  0  0  0
    5.0405   -0.3356    0.0000 N   0  0  0  0  0  0  0  0  0  0  0  0
    3.5724   -1.2375    0.0000 C   0  0  0  0  0  0  0  0  0  0  0  0
    4.2868   -1.6500    0.0000 F   0  0  0  0  0  0  0  0  0  0  0  0
    2.8579   -1.6500    0.0000 C   0  0  0  0  0  0  0  0  0  0  0  0
    2.1434   -1.2375    0.0000 N   0  0  0  0  0  0  0  0  0  0  0  0
    1.4289   -1.6500    0.0000 C   0  0  0  0  0  0  0  0  0  0  0  0
    1.4289   -2.4750    0.0000 O   0  0  0  0  0  0  0  0  0  0  0  0
  1  2  1  0  0  0  0
  2  3  4  0  0  0  0
  3  4  4  0  0  0  0
  4  5  4  0  0  0  0
  5  6  1  0  0  0  0
  6  7  1  0  0  0  0
  6  8  1  0  0  0  0
  6  9  1  0  0  0  0
  5 10  4  0  0  0  0
  2 10  4  0  0  0  0
 10 11  1  0  0  0  0
 11 12  4  0  0  0  0
 12 13  4  0  0  0  0
 13 14  1  0  0  0  0
 14 15  1  0  0  0  0
 14 16  1  0  0  0  0
 13 17  4  0  0  0  0
 17 18  4  0  0  0  0
 18 19  4  0  0  0  0
 19 20  1  0  0  0  0
 20 21  4  0  0  0  0
 21 22  4  0  0  0  0
 22 23  1  0  0  0  0
 22 24  4  0  0  0  0
 24 25  1  0  0  0  0
 25 26  1  0  0  0  0
 25 27  1  0  0  0  0
 25 28  1  0  0  0  0
 24 29  4  0  0  0  0
 20 29  4  0  0  0  0
 19 30  4  0  0  0  0
 30 31  1  0  0  0  0
 30 32  4  0  0  0  0
 32 33  4  0  0  0  0
 17 33  4  0  0  0  0
 33 34  4  0  0  0  0
 11 34  4  0  0  0  0
 34 35  2  0  0  0  0
M  STY  1   1 DAT
M  SAL   1  1   4
M  SDT   1 MRV_IMPLICIT_H                                        
M  SDD   1     0.5304   -0.4125    DR    ALL  0       0  
M  SED   1 IMPL_H1
M  END
> <IC50(uM)>
0.004070000000000001

> <Outcome>
1.0

> <BindingDB ID>
1121402

> <BindingDB MonomerID>
530468

> <BindingDB Ligand Name>
7-Fluoro-8-(2-(2-hydroxypropan-2-yl)-1-methyl-1H-imidazol-4-yl)-1-isopropyl-3- (3-methyl-5-(trifluoromethyl)-1H-pyrazol-4-yl)-4H-quinolizin-4-one.::WO2022070071, Example 6

> <Curation/DataSource>
Curated from the literature by BindingDB

> <Article DOI>
?

> <PMID>
WO2022070071

> <Patent Number>
?

> <Authors>
Lindsey, D; Scott, K

> <Link to Ligand in BindingDB>
http://www.bindingdb.org/bind/chemsearch/marvin/MolStructure.jsp?monomerid=530468

> <Link to Ligand-Target Pair in BindingDB>
http://www.bindingdb.org/jsp/dbsearch/PrimarySearch_ki.jsp?energyterm=kJ/mole&tag=r21&monomerid=530468&enzyme=Dihydroorotate+dehydrogenase&column=ki&startPg=0&Increment=50&submit=Search

> <PubChem CID>
?

> <PubChem SID>
?

$$$$

  Mrv2115 07222212352D          

 25 26  0  0  0  0            999 V2000
   -4.2553   -4.6630    0.0000 C   0  0  0  0  0  0  0  0  0  0  0  0
   -3.5408   -5.0755    0.0000 C   0  0  0  0  0  0  0  0  0  0  0  0
   -2.8264   -4.6630    0.0000 C   0  0  0  0  0  0  0  0  0  0  0  0
   -2.1119   -5.0755    0.0000 C   0  0  0  0  0  0  0  0  0  0  0  0
   -1.3974   -4.6630    0.0000 N   0  0  0  0  0  0  0  0  0  0  0  0
   -0.6830   -5.0755    0.0000 C   0  0  0  0  0  0  0  0  0  0  0  0
   -0.6830   -5.9005    0.0000 O   0  0  0  0  0  0  0  0  0  0  0  0
    0.0315   -4.6630    0.0000 C   0  0  0  0  0  0  0  0  0  0  0  0
    0.1177   -3.8425    0.0000 N   0  0  0  0  0  0  0  0  0  0  0  0
    0.9247   -3.6710    0.0000 C   0  0  0  0  0  0  0  0  0  0  0  0
    1.2603   -2.9173    0.0000 C   0  0  0  0  0  0  0  0  0  0  0  0
    1.3372   -4.3855    0.0000 C   0  0  0  0  0  0  0  0  0  0  0  0
    2.1577   -4.4717    0.0000 C   0  0  0  0  0  0  0  0  0  0  0  0
    2.6426   -3.8043    0.0000 C   0  0  0  0  0  0  0  0  0  0  0  0
    2.3071   -3.0506    0.0000 C   0  0  0  0  0  0  0  0  0  0  0  0
    2.7920   -2.3832    0.0000 C   0  0  0  0  0  0  0  0  0  0  0  0
    3.6125   -2.4694    0.0000 C   0  0  0  0  0  0  0  0  0  0  0  0
    4.0974   -1.8019    0.0000 C   0  0  0  0  0  0  0  0  0  0  0  0
    4.5823   -1.1345    0.0000 F   0  0  0  0  0  0  0  0  0  0  0  0
    4.7648   -2.2869    0.0000 F   0  0  0  0  0  0  0  0  0  0  0  0
    3.4300   -1.3170    0.0000 F   0  0  0  0  0  0  0  0  0  0  0  0
    3.9480   -3.2231    0.0000 C   0  0  0  0  0  0  0  0  0  0  0  0
    3.4631   -3.8905    0.0000 C   0  0  0  0  0  0  0  0  0  0  0  0
    0.7852   -4.9986    0.0000 C   0  0  0  0  0  0  0  0  0  0  0  0
    0.9567   -5.8055    0.0000 C   0  0  0  0  0  0  0  0  0  0  0  0
  1  2  1  0  0  0  0
  2  3  1  0  0  0  0
  3  4  1  0  0  0  0
  4  5  1  0  0  0  0
  5  6  1  0  0  0  0
  6  7  2  0  0  0  0
  6  8  1  0  0  0  0
  8  9  4  0  0  0  0
  9 10  4  0  0  0  0
 10 11  1  0  0  0  0
 10 12  4  0  0  0  0
 12 13  1  0  0  0  0
 13 14  1  0  0  0  0
 14 15  4  0  0  0  0
 15 16  4  0  0  0  0
 16 17  4  0  0  0  0
 17 18  1  0  0  0  0
 18 19  1  0  0  0  0
 18 20  1  0  0  0  0
 18 21  1  0  0  0  0
 17 22  4  0  0  0  0
 22 23  4  0  0  0  0
 14 23  4  0  0  0  0
 12 24  4  0  0  0  0
  8 24  4  0  0  0  0
 24 25  1  0  0  0  0
M  STY  1   1 DAT
M  SAL   1  1   9
M  SDT   1 MRV_IMPLICIT_H                                        
M  SDD   1     0.5304   -0.4125    DR    ALL  0       0  
M  SED   1 IMPL_H1
M  END
> <IC50(uM)>
100.0

> <Outcome>
0.0

> <BindingDB ID>
51330087

> <BindingDB MonomerID>
50538335

> <BindingDB Ligand Name>
CHEMBL4641398

> <Curation/DataSource>
ChEMBL

> <Article DOI>
10.1021/acs.jmedchem.0c00311

> <PMID>
32248693

> <Patent Number>
?

> <Authors>
Kokkonda, S; Deng, X; White, KL; El Mazouni, F; White, J; Shackleford, DM; Katneni, K; Chiu, FCK; Barker, H; McLaren, J; Crighton, E; Chen, G; Angulo-Barturen, I; Jimenez-Diaz, MB; Ferrer, S; Huertas-Valentin, L; Martinez-Martinez, MS; Lafuente-Monasterio, MJ; Chittimalla, R; Shahi, SP; Wittlin, S; Waterson, D; Burrows, JN; Matthews, D; Tomchick, D; Rathod, PK; Palmer, MJ; Charman, SA; Phillips, MA

> <Link to Ligand in BindingDB>
http://www.bindingdb.org/bind/chemsearch/marvin/MolStructure.jsp?monomerid=50538335

> <Link to Ligand-Target Pair in BindingDB>
http://www.bindingdb.org/jsp/dbsearch/PrimarySearch_ki.jsp?energyterm=kJ/mole&tag=r21&monomerid=50538335&enzyme=Dihydroorotate+dehydrogenase&column=ki&startPg=0&Increment=50&submit=Search

> <PubChem CID>
156016501

> <PubChem SID>
442139898

$$$$

  Mrv2115 07222212352D          

 22 24  0  0  0  0            999 V2000
   -2.5067   -4.6160    0.0000 C   0  0  0  0  0  0  0  0  0  0  0  0
   -1.8936   -4.0640    0.0000 C   0  0  0  0  0  0  0  0  0  0  0  0
   -2.0652   -3.2570    0.0000 O   0  0  0  0  0  0  0  0  0  0  0  0
   -1.4521   -2.7050    0.0000 C   0  0  0  0  0  0  0  0  0  0  0  0
   -1.6236   -1.8980    0.0000 O   0  0  0  0  0  0  0  0  0  0  0  0
   -0.6674   -2.9599    0.0000 C   0  0  0  0  0  0  0  0  0  0  0  0
   -0.4125   -3.7445    0.0000 C   0  0  0  0  0  0  0  0  0  0  0  0
   -0.8974   -4.4120    0.0000 O   0  0  0  0  0  0  0  0  0  0  0  0
    0.4125   -3.7445    0.0000 C   0  0  0  0  0  0  0  0  0  0  0  0
    0.6674   -2.9599    0.0000 O   0  0  0  0  0  0  0  0  0  0  0  0
    0.0000   -2.4750    0.0000 C   0  0  0  0  0  0  0  0  0  0  0  0
    0.0000   -1.6500    0.0000 N   0  0  0  0  0  0  0  0  0  0  0  0
    0.7145   -1.2375    0.0000 C   0  0  0  0  0  0  0  0  0  0  0  0
    0.7145   -0.4125    0.0000 C   0  0  0  0  0  0  0  0  0  0  0  0
    1.4289    0.0000    0.0000 N   0  0  0  0  0  0  0  0  0  0  0  0
    2.1434   -0.4125    0.0000 C   0  0  0  0  0  0  0  0  0  0  0  0
    2.8579    0.0000    0.0000 C   0  0  0  0  0  0  0  0  0  0  0  0
    3.5724   -0.4125    0.0000 C   0  0  0  0  0  0  0  0  0  0  0  0
    3.5724   -1.2375    0.0000 C   0  0  0  0  0  0  0  0  0  0  0  0
    2.8579   -1.6500    0.0000 C   0  0  0  0  0  0  0  0  0  0  0  0
    2.1434   -1.2375    0.0000 C   0  0  0  0  0  0  0  0  0  0  0  0
    1.4289   -1.6500    0.0000 C   0  0  0  0  0  0  0  0  0  0  0  0
  1  2  1  0  0  0  0
  2  3  1  0  0  0  0
  3  4  1  0  0  0  0
  4  5  2  0  0  0  0
  4  6  1  0  0  0  0
  6  7  4  0  0  0  0
  7  8  1  0  0  0  0
  7  9  4  0  0  0  0
  9 10  4  0  0  0  0
 10 11  4  0  0  0  0
  6 11  4  0  0  0  0
 11 12  1  0  0  0  0
 12 13  1  0  0  0  0
 13 14  4  0  0  0  0
 14 15  4  0  0  0  0
 15 16  4  0  0  0  0
 16 17  4  0  0  0  0
 17 18  4  0  0  0  0
 18 19  4  0  0  0  0
 19 20  4  0  0  0  0
 20 21  4  0  0  0  0
 16 21  4  0  0  0  0
 21 22  4  0  0  0  0
 13 22  4  0  0  0  0
M  END
> <IC50(uM)>
50.0

> <Outcome>
0.0

> <BindingDB ID>
51079143

> <BindingDB MonomerID>
50441251

> <BindingDB Ligand Name>
CHEMBL2431498

> <Curation/DataSource>
ChEMBL

> <Article DOI>
10.1021/jm400938g

> <PMID>
24073986

> <Patent Number>
?

> <Authors>
Xu, M; Zhu, J; Diao, Y; Zhou, H; Ren, X; Sun, D; Huang, J; Han, D; Zhao, Z; Zhu, L; Xu, Y; Li, H

> <Link to Ligand in BindingDB>
http://www.bindingdb.org/bind/chemsearch/marvin/MolStructure.jsp?monomerid=50441251

> <Link to Ligand-Target Pair in BindingDB>
http://www.bindingdb.org/jsp/dbsearch/PrimarySearch_ki.jsp?energyterm=kJ/mole&tag=r21&monomerid=50441251&enzyme=Dihydroorotate+dehydrogenase&column=ki&startPg=0&Increment=50&submit=Search

> <PubChem CID>
91898812

> <PubChem SID>
175453568

$$$$

  Mrv2115 07222212352D          

 20 23  0  0  0  0            999 V2000
    4.0668    2.3479    0.0000 C   0  0  0  0  0  0  0  0  0  0  0  0
    3.3523    1.9354    0.0000 C   0  0  0  0  0  0  0  0  0  0  0  0
    3.3523    1.1104    0.0000 C   0  0  0  0  0  0  0  0  0  0  0  0
    2.6378    0.6979    0.0000 C   0  0  0  0  0  0  0  0  0  0  0  0
    2.6378   -0.1271    0.0000 N   0  0  0  0  0  0  0  0  0  0  0  0
    1.9233   -0.5396    0.0000 C   0  0  0  0  0  0  0  0  0  0  0  0
    1.9233   -1.3646    0.0000 C   0  0  0  0  0  0  0  0  0  0  0  0
    1.2089   -1.7771    0.0000 C   0  0  0  0  0  0  0  0  0  0  0  0
    0.4944   -1.3646    0.0000 C   0  0  0  0  0  0  0  0  0  0  0  0
   -0.2201   -1.7771    0.0000 C   0  0  0  0  0  0  0  0  0  0  0  0
   -0.6326   -2.4915    0.0000 C   0  0  0  0  0  0  0  0  0  0  0  0
   -1.0451   -1.7771    0.0000 C   0  0  0  0  0  0  0  0  0  0  0  0
    0.4944   -0.5396    0.0000 C   0  0  0  0  0  0  0  0  0  0  0  0
    1.2089   -0.1271    0.0000 C   0  0  0  0  0  0  0  0  0  0  0  0
    1.9233    1.1104    0.0000 N   0  0  0  0  0  0  0  0  0  0  0  0
    1.1387    0.8555    0.0000 N   0  0  0  0  0  0  0  0  0  0  0  0
    0.6538    1.5229    0.0000 C   0  0  0  0  0  0  0  0  0  0  0  0
    1.1387    2.1904    0.0000 N   0  0  0  0  0  0  0  0  0  0  0  0
    1.9233    1.9354    0.0000 C   0  0  0  0  0  0  0  0  0  0  0  0
    2.6378    2.3479    0.0000 N   0  0  0  0  0  0  0  0  0  0  0  0
  1  2  1  0  0  0  0
  2  3  4  0  0  0  0
  3  4  4  0  0  0  0
  4  5  1  0  0  0  0
  5  6  1  0  0  0  0
  6  7  4  0  0  0  0
  7  8  4  0  0  0  0
  8  9  4  0  0  0  0
  9 10  1  0  0  0  0
 10 11  1  0  0  0  0
 11 12  1  0  0  0  0
 10 12  1  0  0  0  0
  9 13  4  0  0  0  0
 13 14  4  0  0  0  0
  6 14  4  0  0  0  0
  4 15  4  0  0  0  0
 15 16  4  0  0  0  0
 16 17  4  0  0  0  0
 17 18  4  0  0  0  0
 18 19  4  0  0  0  0
 15 19  4  0  0  0  0
 19 20  4  0  0  0  0
  2 20  4  0  0  0  0
M  END
> <IC50(uM)>
100.0

> <Outcome>
0.0

> <BindingDB ID>
50643173

> <BindingDB MonomerID>
50345419

> <BindingDB Ligand Name>
CHEMBL1784562::N-(4-Cyclopropylphenyl)-5-methyl-[1,2,4]triazolo[1,5-a]pyrimidin-7-amine

> <Curation/DataSource>
ChEMBL

> <Article DOI>
10.1021/jm200265b

> <PMID>
21517059

> <Patent Number>
?

> <Authors>
Gujjar, R; El Mazouni, F; White, KL; White, J; Creason, S; Shackleford, DM; Deng, X; Charman, WN; Bathurst, I; Burrows, J; Floyd, DM; Matthews, D; Buckner, FS; Charman, SA; Phillips, MA; Rathod, PK

> <Link to Ligand in BindingDB>
http://www.bindingdb.org/bind/chemsearch/marvin/MolStructure.jsp?monomerid=50345419

> <Link to Ligand-Target Pair in BindingDB>
http://www.bindingdb.org/jsp/dbsearch/PrimarySearch_ki.jsp?energyterm=kJ/mole&tag=r21&monomerid=50345419&enzyme=Dihydroorotate+dehydrogenase&column=ki&startPg=0&Increment=50&submit=Search

> <PubChem CID>
51347695

> <PubChem SID>
131348355

$$$$

  Mrv2115 07222212352D          

 15 16  0  0  0  0            999 V2000
   -0.8212    6.0027    0.0000 C   0  0  0  0  0  0  0  0  0  0  0  0
   -0.1067    5.5902    0.0000 C   0  0  0  0  0  0  0  0  0  0  0  0
    0.6078    6.0027    0.0000 C   0  0  0  0  0  0  0  0  0  0  0  0
    1.3222    5.5902    0.0000 C   0  0  0  0  0  0  0  0  0  0  0  0
    1.3222    4.7652    0.0000 C   0  0  0  0  0  0  0  0  0  0  0  0
    2.0367    4.3527    0.0000 N   0  0  0  0  0  0  0  0  0  0  0  0
    2.0367    3.5277    0.0000 C   0  0  0  0  0  0  0  0  0  0  0  0
    2.7041    3.0428    0.0000 C   0  0  0  0  0  0  0  0  0  0  0  0
    2.4492    2.2581    0.0000 C   0  0  0  0  0  0  0  0  0  0  0  0
    2.9341    1.5907    0.0000 O   0  0  0  0  0  0  0  0  0  0  0  0
    1.6242    2.2581    0.0000 C   0  0  0  0  0  0  0  0  0  0  0  0
    1.3693    3.0428    0.0000 S   0  0  0  0  0  0  0  0  0  0  0  0
    0.6078    4.3527    0.0000 C   0  0  0  0  0  0  0  0  0  0  0  0
   -0.1067    4.7652    0.0000 C   0  0  0  0  0  0  0  0  0  0  0  0
   -0.8212    4.3527    0.0000 C   0  0  0  0  0  0  0  0  0  0  0  0
  1  2  1  0  0  0  0
  2  3  4  0  0  0  0
  3  4  4  0  0  0  0
  4  5  4  0  0  0  0
  5  6  1  0  0  0  0
  6  7  1  0  0  0  0
  7  8  4  0  0  0  0
  8  9  4  0  0  0  0
  9 10  1  0  0  0  0
  9 11  4  0  0  0  0
 11 12  4  0  0  0  0
  7 12  4  0  0  0  0
  5 13  4  0  0  0  0
 13 14  4  0  0  0  0
  2 14  4  0  0  0  0
 14 15  1  0  0  0  0
M  END
> <IC50(uM)>
50.0

> <Outcome>
0.0

> <BindingDB ID>
51079166

> <BindingDB MonomerID>
50441274

> <BindingDB Ligand Name>
CHEMBL2431519

> <Curation/DataSource>
ChEMBL

> <Article DOI>
10.1021/jm400938g

> <PMID>
24073986

> <Patent Number>
?

> <Authors>
Xu, M; Zhu, J; Diao, Y; Zhou, H; Ren, X; Sun, D; Huang, J; Han, D; Zhao, Z; Zhu, L; Xu, Y; Li, H

> <Link to Ligand in BindingDB>
http://www.bindingdb.org/bind/chemsearch/marvin/MolStructure.jsp?monomerid=50441274

> <Link to Ligand-Target Pair in BindingDB>
http://www.bindingdb.org/jsp/dbsearch/PrimarySearch_ki.jsp?energyterm=kJ/mole&tag=r21&monomerid=50441274&enzyme=Dihydroorotate+dehydrogenase&column=ki&startPg=0&Increment=50&submit=Search

> <PubChem CID>
91898835

> <PubChem SID>
175453591

$$$$

  Mrv2115 07222212352D          

 26 29  0  0  0  0            999 V2000
    5.6833    4.9580    0.0000 C   0  0  0  0  0  0  0  0  0  0  0  0
    6.2964    4.4059    0.0000 C   0  0  0  0  0  0  0  0  0  0  0  0
    7.1034    4.5775    0.0000 C   0  0  0  0  0  0  0  0  0  0  0  0
    7.5159    3.8630    0.0000 C   0  0  0  0  0  0  0  0  0  0  0  0
    6.9638    3.2499    0.0000 C   0  0  0  0  0  0  0  0  0  0  0  0
    7.1354    2.4429    0.0000 C   0  0  0  0  0  0  0  0  0  0  0  0
    6.2102    3.5854    0.0000 N   0  0  0  0  0  0  0  0  0  0  0  0
    5.4957    3.1729    0.0000 C   0  0  0  0  0  0  0  0  0  0  0  0
    5.4957    2.3479    0.0000 C   0  0  0  0  0  0  0  0  0  0  0  0
    4.7812    1.9354    0.0000 C   0  0  0  0  0  0  0  0  0  0  0  0
    4.0668    2.3479    0.0000 C   0  0  0  0  0  0  0  0  0  0  0  0
    3.3523    1.9354    0.0000 C   0  0  0  0  0  0  0  0  0  0  0  0
    3.3523    1.1104    0.0000 C   0  0  0  0  0  0  0  0  0  0  0  0
    2.6378    0.6979    0.0000 C   0  0  0  0  0  0  0  0  0  0  0  0
    2.6378   -0.1271    0.0000 C   0  0  0  0  0  0  0  0  0  0  0  0
    1.9233   -0.5396    0.0000 O   0  0  0  0  0  0  0  0  0  0  0  0
    3.3523   -0.5396    0.0000 O   0  0  0  0  0  0  0  0  0  0  0  0
    1.9233    1.1104    0.0000 C   0  0  0  0  0  0  0  0  0  0  0  0
    1.9233    1.9354    0.0000 C   0  0  0  0  0  0  0  0  0  0  0  0
    2.6378    2.3479    0.0000 C   0  0  0  0  0  0  0  0  0  0  0  0
    1.1387    2.1904    0.0000 N   0  0  0  0  0  0  0  0  0  0  0  0
    0.6538    1.5229    0.0000 N   0  0  0  0  0  0  0  0  0  0  0  0
    1.1387    0.8555    0.0000 N   0  0  0  0  0  0  0  0  0  0  0  0
    0.8838    0.0709    0.0000 C   0  0  0  0  0  0  0  0  0  0  0  0
    4.0668    3.1729    0.0000 C   0  0  0  0  0  0  0  0  0  0  0  0
    4.7812    3.5854    0.0000 C   0  0  0  0  0  0  0  0  0  0  0  0
  1  2  1  0  0  0  0
  2  3  4  0  0  0  0
  3  4  4  0  0  0  0
  4  5  4  0  0  0  0
  5  6  1  0  0  0  0
  5  7  4  0  0  0  0
  2  7  4  0  0  0  0
  7  8  1  0  0  0  0
  8  9  4  0  0  0  0
  9 10  4  0  0  0  0
 10 11  4  0  0  0  0
 11 12  1  0  0  0  0
 12 13  4  0  0  0  0
 13 14  4  0  0  0  0
 14 15  1  0  0  0  0
 15 16  2  0  0  0  0
 15 17  1  0  0  0  0
 14 18  4  0  0  0  0
 18 19  4  0  0  0  0
 19 20  4  0  0  0  0
 12 20  4  0  0  0  0
 19 21  4  0  0  0  0
 21 22  4  0  0  0  0
 22 23  4  0  0  0  0
 18 23  4  0  0  0  0
 23 24  1  0  0  0  0
 11 25  4  0  0  0  0
 25 26  4  0  0  0  0
  8 26  4  0  0  0  0
M  END
> <IC50(uM)>
0.1

> <Outcome>
1.0

> <BindingDB ID>
1100161

> <BindingDB MonomerID>
520620

> <BindingDB Ligand Name>
5-(4-(2,5-dimethyl-1H-pyrrol-1-yl)phenyl)-1-methyl-1H-benzo[d][1,2,3]triazole- 7-carboxylic acid;::US11147801, Compound 12

> <Curation/DataSource>
US Patent

> <Article DOI>
?

> <PMID>
?

> <Patent Number>
US11147801

> <Authors>
Nellore, K; Hosahalli, S

> <Link to Ligand in BindingDB>
http://www.bindingdb.org/bind/chemsearch/marvin/MolStructure.jsp?monomerid=520620

> <Link to Ligand-Target Pair in BindingDB>
http://www.bindingdb.org/jsp/dbsearch/PrimarySearch_ki.jsp?energyterm=kJ/mole&tag=r21&monomerid=520620&enzyme=Dihydroorotate+dehydrogenase&column=ki&startPg=0&Increment=50&submit=Search

> <PubChem CID>
?

> <PubChem SID>
?

$$$$

  Mrv2115 07222212352D          

 36 40  0  0  0  0            999 V2000
   -5.3959   -2.8645    0.0000 C   0  0  0  0  0  0  0  0  0  0  0  0
   -5.6509   -2.0799    0.0000 C   0  0  0  0  0  0  0  0  0  0  0  0
   -6.4355   -1.8249    0.0000 C   0  0  0  0  0  0  0  0  0  0  0  0
   -6.4355   -0.9999    0.0000 N   0  0  0  0  0  0  0  0  0  0  0  0
   -7.1029   -0.5150    0.0000 C   0  0  0  0  0  0  0  0  0  0  0  0
   -5.6509   -0.7450    0.0000 N   0  0  0  0  0  0  0  0  0  0  0  0
   -5.1659   -1.4124    0.0000 C   0  0  0  0  0  0  0  0  0  0  0  0
   -4.3409   -1.4124    0.0000 N   0  0  0  0  0  0  0  0  0  0  0  0
   -3.9284   -0.6979    0.0000 C   0  0  0  0  0  0  0  0  0  0  0  0
   -4.3409    0.0165    0.0000 O   0  0  0  0  0  0  0  0  0  0  0  0
   -3.1034   -0.6979    0.0000 C   0  0  0  0  0  0  0  0  0  0  0  0
   -2.6909    0.0165    0.0000 C   0  0  0  0  0  0  0  0  0  0  0  0
   -1.8659    0.0165    0.0000 C   0  0  0  0  0  0  0  0  0  0  0  0
   -1.4534    0.7310    0.0000 F   0  0  0  0  0  0  0  0  0  0  0  0
   -1.4534   -0.6979    0.0000 C   0  0  0  0  0  0  0  0  0  0  0  0
   -0.6284   -0.6979    0.0000 N   0  0  0  0  0  0  0  0  0  0  0  0
   -0.1435   -1.3654    0.0000 N   0  0  0  0  0  0  0  0  0  0  0  0
    0.6411   -1.1104    0.0000 C   0  0  0  0  0  0  0  0  0  0  0  0
    0.6411   -0.2854    0.0000 N   0  0  0  0  0  0  0  0  0  0  0  0
   -0.1435   -0.0305    0.0000 C   0  0  0  0  0  0  0  0  0  0  0  0
   -0.3984    0.7541    0.0000 O   0  0  0  0  0  0  0  0  0  0  0  0
    1.3556    0.1271    0.0000 C   0  0  0  0  0  0  0  0  0  0  0  0
    2.0701   -0.2854    0.0000 C   0  0  0  0  0  0  0  0  0  0  0  0
    2.0701   -1.1104    0.0000 C   0  0  0  0  0  0  0  0  0  0  0  0
    1.3556   -1.5229    0.0000 C   0  0  0  0  0  0  0  0  0  0  0  0
   -1.8659   -1.4124    0.0000 C   0  0  0  0  0  0  0  0  0  0  0  0
   -2.6909   -1.4124    0.0000 C   0  0  0  0  0  0  0  0  0  0  0  0
   -3.1034   -2.1269    0.0000 O   0  0  0  0  0  0  0  0  0  0  0  0
   -2.6909   -2.8414    0.0000 C   0  0  0  0  0  0  0  0  0  0  0  0
   -1.8659   -2.8414    0.0000 C   0  0  0  0  0  0  0  0  0  0  0  0
   -3.1034   -3.5558    0.0000 C   0  0  0  0  0  0  0  0  0  0  0  0
   -2.6909   -4.2703    0.0000 C   0  0  0  0  0  0  0  0  0  0  0  0
   -3.1034   -4.9848    0.0000 C   0  0  0  0  0  0  0  0  0  0  0  0
   -3.9284   -4.9848    0.0000 C   0  0  0  0  0  0  0  0  0  0  0  0
   -4.3409   -4.2703    0.0000 C   0  0  0  0  0  0  0  0  0  0  0  0
   -3.9284   -3.5558    0.0000 C   0  0  0  0  0  0  0  0  0  0  0  0
  1  2  1  0  0  0  0
  2  3  4  0  0  0  0
  3  4  4  0  0  0  0
  4  5  1  0  0  0  0
  4  6  4  0  0  0  0
  6  7  4  0  0  0  0
  2  7  4  0  0  0  0
  7  8  1  0  0  0  0
  8  9  1  0  0  0  0
  9 10  2  0  0  0  0
  9 11  1  0  0  0  0
 11 12  4  0  0  0  0
 12 13  4  0  0  0  0
 13 14  1  0  0  0  0
 13 15  4  0  0  0  0
 15 16  1  0  0  0  0
 16 17  4  0  0  0  0
 17 18  4  0  0  0  0
 18 19  4  0  0  0  0
 19 20  4  0  0  0  0
 16 20  4  0  0  0  0
 20 21  2  0  0  0  0
 19 22  1  0  0  0  0
 22 23  1  0  0  0  0
 23 24  1  0  0  0  0
 24 25  1  0  0  0  0
 18 25  1  0  0  0  0
 15 26  4  0  0  0  0
 26 27  4  0  0  0  0
 11 27  4  0  0  0  0
 27 28  1  0  0  0  0
 28 29  1  0  0  0  0
 29 30  1  0  0  0  0
 29 31  1  0  0  0  0
 31 32  1  0  0  0  0
 32 33  1  0  0  0  0
 33 34  1  0  0  0  0
 34 35  1  0  0  0  0
 35 36  1  0  0  0  0
 31 36  1  0  0  0  0
M  END
> <IC50(uM)>
0.016

> <Outcome>
1.0

> <BindingDB ID>
1020568

> <BindingDB MonomerID>
490507

> <BindingDB Ligand Name>
2-[(1S)-1-cyclohexylethoxy]-N-(1,4-dimethyl-1H-pyrazol-3-yl)-5-fluoro-4-(3-oxo-5,6,7,8-tetrahydro[1,2,4]triazolo[4,3-a]pyridin-2(3H)-yl)benzamide::US10968216, Example 175

> <Curation/DataSource>
US Patent

> <Article DOI>
?

> <PMID>
?

> <Patent Number>
US10968216

> <Authors>
Gradl, SN; Nguyen, D; Eis, K; Gunther, J; Stellfeld, T; Janzer, A; Christian, S; Mueller, T; Sheikh, SE; Zhou, HJ; Zhao, C; Sykes, DB; Ferrara, SJ; Liu, K; Herbert, SA; Merz, C; Niehues, M; Nising, CF; Schafer, M; Zimmermann, K; Knablein, J; Thede, K; Faupel, T

> <Link to Ligand in BindingDB>
http://www.bindingdb.org/bind/chemsearch/marvin/MolStructure.jsp?monomerid=490507

> <Link to Ligand-Target Pair in BindingDB>
http://www.bindingdb.org/jsp/dbsearch/PrimarySearch_ki.jsp?energyterm=kJ/mole&tag=r21&monomerid=490507&enzyme=Dihydroorotate+dehydrogenase&column=ki&startPg=0&Increment=50&submit=Search

> <PubChem CID>
142335872

> <PubChem SID>
447117234

$$$$

  Mrv2115 07222212352D          

 31 34  0  0  0  0            999 V2000
   -0.1712   -0.6979    0.0000 C   0  0  0  0  0  0  0  0  0  0  0  0
    0.6538   -0.6979    0.0000 C   0  0  0  0  0  0  0  0  0  0  0  0
    1.1387   -0.0305    0.0000 N   0  0  0  0  0  0  0  0  0  0  0  0
    1.9233   -0.2854    0.0000 C   0  0  0  0  0  0  0  0  0  0  0  0
    2.6378    0.1271    0.0000 C   0  0  0  0  0  0  0  0  0  0  0  0
    2.6378    0.9521    0.0000 C   0  0  0  0  0  0  0  0  0  0  0  0
    3.3523    1.3646    0.0000 O   0  0  0  0  0  0  0  0  0  0  0  0
    1.9233    1.3646    0.0000 O   0  0  0  0  0  0  0  0  0  0  0  0
    3.3523   -0.2854    0.0000 C   0  0  0  0  0  0  0  0  0  0  0  0
    3.3523   -1.1104    0.0000 C   0  0  0  0  0  0  0  0  0  0  0  0
    4.0668   -1.5229    0.0000 C   0  0  0  0  0  0  0  0  0  0  0  0
    4.7812   -1.1104    0.0000 C   0  0  0  0  0  0  0  0  0  0  0  0
    4.7812   -0.2854    0.0000 F   0  0  0  0  0  0  0  0  0  0  0  0
    5.4957   -1.5229    0.0000 C   0  0  0  0  0  0  0  0  0  0  0  0
    6.2102   -1.1104    0.0000 F   0  0  0  0  0  0  0  0  0  0  0  0
    5.4957   -2.3479    0.0000 C   0  0  0  0  0  0  0  0  0  0  0  0
    6.2102   -2.7604    0.0000 C   0  0  0  0  0  0  0  0  0  0  0  0
    6.9246   -2.3479    0.0000 C   0  0  0  0  0  0  0  0  0  0  0  0
    7.6391   -2.7604    0.0000 C   0  0  0  0  0  0  0  0  0  0  0  0
    7.6391   -3.5854    0.0000 C   0  0  0  0  0  0  0  0  0  0  0  0
    6.9246   -3.9979    0.0000 C   0  0  0  0  0  0  0  0  0  0  0  0
    6.9246   -4.8229    0.0000 C   0  0  0  0  0  0  0  0  0  0  0  0
    7.6391   -5.2354    0.0000 O   0  0  0  0  0  0  0  0  0  0  0  0
    6.2102   -3.5854    0.0000 C   0  0  0  0  0  0  0  0  0  0  0  0
    4.7812   -2.7604    0.0000 C   0  0  0  0  0  0  0  0  0  0  0  0
    4.7812   -3.5854    0.0000 F   0  0  0  0  0  0  0  0  0  0  0  0
    4.0668   -2.3479    0.0000 C   0  0  0  0  0  0  0  0  0  0  0  0
    3.3523   -2.7604    0.0000 F   0  0  0  0  0  0  0  0  0  0  0  0
    2.6378   -1.5229    0.0000 C   0  0  0  0  0  0  0  0  0  0  0  0
    1.9233   -1.1104    0.0000 C   0  0  0  0  0  0  0  0  0  0  0  0
    1.1387   -1.3654    0.0000 N   0  0  0  0  0  0  0  0  0  0  0  0
  1  2  1  0  0  0  0
  2  3  4  0  0  0  0
  3  4  4  0  0  0  0
  4  5  4  0  0  0  0
  5  6  1  0  0  0  0
  6  7  2  0  0  0  0
  6  8  1  0  0  0  0
  5  9  4  0  0  0  0
  9 10  4  0  0  0  0
 10 11  1  0  0  0  0
 11 12  4  0  0  0  0
 12 13  1  0  0  0  0
 12 14  4  0  0  0  0
 14 15  1  0  0  0  0
 14 16  4  0  0  0  0
 16 17  1  0  0  0  0
 17 18  4  0  0  0  0
 18 19  4  0  0  0  0
 19 20  4  0  0  0  0
 20 21  4  0  0  0  0
 21 22  1  0  0  0  0
 22 23  1  0  0  0  0
 21 24  4  0  0  0  0
 17 24  4  0  0  0  0
 16 25  4  0  0  0  0
 25 26  1  0  0  0  0
 25 27  4  0  0  0  0
 11 27  4  0  0  0  0
 27 28  1  0  0  0  0
 10 29  4  0  0  0  0
 29 30  4  0  0  0  0
  4 30  4  0  0  0  0
 30 31  4  0  0  0  0
  2 31  4  0  0  0  0
M  STY  1   1 DAT
M  SAL   1  1  31
M  SDT   1 MRV_IMPLICIT_H                                        
M  SDD   1     0.5304   -0.4125    DR    ALL  0       0  
M  SED   1 IMPL_H1
M  END
> <IC50(uM)>
0.0055

> <Outcome>
1.0

> <BindingDB ID>
1045602

> <BindingDB MonomerID>
501660

> <BindingDB Ligand Name>
US11028054, Example 57

> <Curation/DataSource>
US Patent

> <Article DOI>
?

> <PMID>
?

> <Patent Number>
US11028054

> <Authors>
Thunuguntla, SS; Hosahalli, S; Panigrahi, SK; Schwarz, M; Arit, M

> <Link to Ligand in BindingDB>
http://www.bindingdb.org/bind/chemsearch/marvin/MolStructure.jsp?monomerid=501660

> <Link to Ligand-Target Pair in BindingDB>
http://www.bindingdb.org/jsp/dbsearch/PrimarySearch_ki.jsp?energyterm=kJ/mole&tag=r21&monomerid=501660&enzyme=Dihydroorotate+dehydrogenase&column=ki&startPg=0&Increment=50&submit=Search

> <PubChem CID>
?

> <PubChem SID>
?

$$$$

  Mrv2115 07222212352D          

 26 29  0  0  0  0            999 V2000
   -1.7575    0.3126    0.0000 C   0  0  0  0  0  0  0  0  0  0  0  0
   -1.2054    0.9256    0.0000 C   0  0  0  0  0  0  0  0  0  0  0  0
   -1.4604    1.7103    0.0000 C   0  0  0  0  0  0  0  0  0  0  0  0
   -0.9083    2.3234    0.0000 C   0  0  0  0  0  0  0  0  0  0  0  0
   -0.1014    2.1518    0.0000 C   0  0  0  0  0  0  0  0  0  0  0  0
    0.1536    1.3672    0.0000 C   0  0  0  0  0  0  0  0  0  0  0  0
   -0.3984    0.7541    0.0000 C   0  0  0  0  0  0  0  0  0  0  0  0
   -0.1435   -0.0305    0.0000 N   0  0  0  0  0  0  0  0  0  0  0  0
   -0.6284   -0.6979    0.0000 N   0  0  0  0  0  0  0  0  0  0  0  0
   -0.1435   -1.3654    0.0000 C   0  0  0  0  0  0  0  0  0  0  0  0
    0.6411   -1.1104    0.0000 C   0  0  0  0  0  0  0  0  0  0  0  0
    0.6411   -0.2854    0.0000 C   0  0  0  0  0  0  0  0  0  0  0  0
    1.3556    0.1271    0.0000 C   0  0  0  0  0  0  0  0  0  0  0  0
    2.0701   -0.2854    0.0000 C   0  0  0  0  0  0  0  0  0  0  0  0
    2.0701   -1.1104    0.0000 C   0  0  0  0  0  0  0  0  0  0  0  0
    1.3556   -1.5229    0.0000 C   0  0  0  0  0  0  0  0  0  0  0  0
    1.3556   -2.3479    0.0000 N   0  0  0  0  0  0  0  0  0  0  0  0
    2.0701   -2.7604    0.0000 C   0  0  0  0  0  0  0  0  0  0  0  0
    2.7845   -2.3479    0.0000 O   0  0  0  0  0  0  0  0  0  0  0  0
    2.0701   -3.5854    0.0000 C   0  0  0  0  0  0  0  0  0  0  0  0
    2.7845   -3.9979    0.0000 C   0  0  0  0  0  0  0  0  0  0  0  0
    2.7845   -4.8229    0.0000 C   0  0  0  0  0  0  0  0  0  0  0  0
    2.0701   -5.2354    0.0000 C   0  0  0  0  0  0  0  0  0  0  0  0
    1.3556   -4.8229    0.0000 N   0  0  0  0  0  0  0  0  0  0  0  0
    1.3556   -3.9979    0.0000 C   0  0  0  0  0  0  0  0  0  0  0  0
    0.6411   -3.5854    0.0000 O   0  0  0  0  0  0  0  0  0  0  0  0
  1  2  1  0  0  0  0
  2  3  4  0  0  0  0
  3  4  4  0  0  0  0
  4  5  4  0  0  0  0
  5  6  4  0  0  0  0
  6  7  4  0  0  0  0
  2  7  4  0  0  0  0
  7  8  1  0  0  0  0
  8  9  4  0  0  0  0
  9 10  4  0  0  0  0
 10 11  4  0  0  0  0
 11 12  4  0  0  0  0
  8 12  4  0  0  0  0
 12 13  1  0  0  0  0
 13 14  1  0  0  0  0
 14 15  1  0  0  0  0
 15 16  1  0  0  0  0
 11 16  1  0  0  0  0
 16 17  1  0  0  0  0
 17 18  1  0  0  0  0
 18 19  2  0  0  0  0
 18 20  1  0  0  0  0
 20 21  4  0  0  0  0
 21 22  4  0  0  0  0
 22 23  4  0  0  0  0
 23 24  4  0  0  0  0
 24 25  4  0  0  0  0
 20 25  4  0  0  0  0
 25 26  1  0  0  0  0
M  END
> <IC50(uM)>
0.881

> <Outcome>
1.0

> <BindingDB ID>
993089

> <BindingDB MonomerID>
477591

> <BindingDB Ligand Name>
2-hydroxy-N-[(4R)-1-(2-methylphenyl)-4,5,6,7-tetrahydro-1H-indazol-4-yl]pyridine-3-carboxamide::US10889564, Example 21

> <Curation/DataSource>
US Patent

> <Article DOI>
?

> <PMID>
?

> <Patent Number>
US10889564

> <Authors>
Lain, S; Drummond, C; Leeuwen, IV; Haraldsson, M; Johansson, L; Sandberg, L; Yngve, U

> <Link to Ligand in BindingDB>
http://www.bindingdb.org/bind/chemsearch/marvin/MolStructure.jsp?monomerid=477591

> <Link to Ligand-Target Pair in BindingDB>
http://www.bindingdb.org/jsp/dbsearch/PrimarySearch_ki.jsp?energyterm=kJ/mole&tag=r21&monomerid=477591&enzyme=Dihydroorotate+dehydrogenase&column=ki&startPg=0&Increment=50&submit=Search

> <PubChem CID>
129104775

> <PubChem SID>
442137208

$$$$

  Mrv2115 07222212352D          

 37 41  0  0  0  0            999 V2000
   -7.6409   -1.4124    0.0000 C   0  0  0  0  0  0  0  0  0  0  0  0
   -6.8159   -1.4124    0.0000 C   0  0  0  0  0  0  0  0  0  0  0  0
   -6.4034   -0.6979    0.0000 C   0  0  0  0  0  0  0  0  0  0  0  0
   -5.5784   -0.6979    0.0000 N   0  0  0  0  0  0  0  0  0  0  0  0
   -5.1659   -1.4124    0.0000 C   0  0  0  0  0  0  0  0  0  0  0  0
   -4.3409   -1.4124    0.0000 N   0  0  0  0  0  0  0  0  0  0  0  0
   -3.9284   -0.6979    0.0000 C   0  0  0  0  0  0  0  0  0  0  0  0
   -4.3409    0.0165    0.0000 O   0  0  0  0  0  0  0  0  0  0  0  0
   -3.1034   -0.6979    0.0000 C   0  0  0  0  0  0  0  0  0  0  0  0
   -2.6909    0.0165    0.0000 C   0  0  0  0  0  0  0  0  0  0  0  0
   -1.8659    0.0165    0.0000 C   0  0  0  0  0  0  0  0  0  0  0  0
   -1.4534    0.7310    0.0000 F   0  0  0  0  0  0  0  0  0  0  0  0
   -1.4534   -0.6979    0.0000 C   0  0  0  0  0  0  0  0  0  0  0  0
   -0.6284   -0.6979    0.0000 N   0  0  0  0  0  0  0  0  0  0  0  0
   -0.1435   -1.3654    0.0000 N   0  0  0  0  0  0  0  0  0  0  0  0
    0.6411   -1.1104    0.0000 C   0  0  0  0  0  0  0  0  0  0  0  0
    0.6411   -0.2854    0.0000 N   0  0  0  0  0  0  0  0  0  0  0  0
   -0.1435   -0.0305    0.0000 C   0  0  0  0  0  0  0  0  0  0  0  0
   -0.3984    0.7541    0.0000 O   0  0  0  0  0  0  0  0  0  0  0  0
    1.3556    0.1271    0.0000 C   0  0  0  0  0  0  0  0  0  0  0  0
    2.0701   -0.2854    0.0000 C   0  0  0  0  0  0  0  0  0  0  0  0
    2.0701   -1.1104    0.0000 C   0  0  0  0  0  0  0  0  0  0  0  0
    1.3556   -1.5229    0.0000 C   0  0  0  0  0  0  0  0  0  0  0  0
   -1.8659   -1.4124    0.0000 C   0  0  0  0  0  0  0  0  0  0  0  0
   -2.6909   -1.4124    0.0000 C   0  0  0  0  0  0  0  0  0  0  0  0
   -3.1034   -2.1269    0.0000 O   0  0  0  0  0  0  0  0  0  0  0  0
   -2.6909   -2.8414    0.0000 C   0  0  0  0  0  0  0  0  0  0  0  0
   -1.8659   -2.8414    0.0000 C   0  0  0  0  0  0  0  0  0  0  0  0
   -3.1034   -3.5558    0.0000 C   0  0  0  0  0  0  0  0  0  0  0  0
   -2.6909   -4.2703    0.0000 C   0  0  0  0  0  0  0  0  0  0  0  0
   -3.1034   -4.9848    0.0000 C   0  0  0  0  0  0  0  0  0  0  0  0
   -3.9284   -4.9848    0.0000 C   0  0  0  0  0  0  0  0  0  0  0  0
   -4.3409   -4.2703    0.0000 C   0  0  0  0  0  0  0  0  0  0  0  0
   -3.9284   -3.5558    0.0000 C   0  0  0  0  0  0  0  0  0  0  0  0
   -5.5784   -2.1269    0.0000 C   0  0  0  0  0  0  0  0  0  0  0  0
   -5.1659   -2.8414    0.0000 C   0  0  0  0  0  0  0  0  0  0  0  0
   -6.4034   -2.1269    0.0000 N   0  0  0  0  0  0  0  0  0  0  0  0
  1  2  1  0  0  0  0
  2  3  4  0  0  0  0
  3  4  4  0  0  0  0
  4  5  4  0  0  0  0
  5  6  1  0  0  0  0
  6  7  1  0  0  0  0
  7  8  2  0  0  0  0
  7  9  1  0  0  0  0
  9 10  4  0  0  0  0
 10 11  4  0  0  0  0
 11 12  1  0  0  0  0
 11 13  4  0  0  0  0
 13 14  1  0  0  0  0
 14 15  4  0  0  0  0
 15 16  4  0  0  0  0
 16 17  4  0  0  0  0
 17 18  4  0  0  0  0
 14 18  4  0  0  0  0
 18 19  2  0  0  0  0
 17 20  1  0  0  0  0
 20 21  1  0  0  0  0
 21 22  1  0  0  0  0
 22 23  1  0  0  0  0
 16 23  1  0  0  0  0
 13 24  4  0  0  0  0
 24 25  4  0  0  0  0
  9 25  4  0  0  0  0
 25 26  1  0  0  0  0
 26 27  1  0  0  0  0
 27 28  1  0  0  0  0
 27 29  1  0  0  0  0
 29 30  1  0  0  0  0
 30 31  1  0  0  0  0
 31 32  1  0  0  0  0
 32 33  1  0  0  0  0
 33 34  1  0  0  0  0
 29 34  1  0  0  0  0
  5 35  4  0  0  0  0
 35 36  1  0  0  0  0
 35 37  4  0  0  0  0
  2 37  4  0  0  0  0
M  END
> <IC50(uM)>
0.065

> <Outcome>
1.0

> <BindingDB ID>
1020510

> <BindingDB MonomerID>
490458

> <BindingDB Ligand Name>
2-[(1S)-1-cyclohexylethoxy]-N-(3,5-dimethylpyrazin-2-yl)-5-fluoro-4-(3-oxo-5,6,7,8-tetrahydro[1,2,4]triazolo[4,3-a]pyridin-2(3H)-yl)benzamide::US10968216, Example 126

> <Curation/DataSource>
US Patent

> <Article DOI>
?

> <PMID>
?

> <Patent Number>
US10968216

> <Authors>
Gradl, SN; Nguyen, D; Eis, K; Gunther, J; Stellfeld, T; Janzer, A; Christian, S; Mueller, T; Sheikh, SE; Zhou, HJ; Zhao, C; Sykes, DB; Ferrara, SJ; Liu, K; Herbert, SA; Merz, C; Niehues, M; Nising, CF; Schafer, M; Zimmermann, K; Knablein, J; Thede, K; Faupel, T

> <Link to Ligand in BindingDB>
http://www.bindingdb.org/bind/chemsearch/marvin/MolStructure.jsp?monomerid=490458

> <Link to Ligand-Target Pair in BindingDB>
http://www.bindingdb.org/jsp/dbsearch/PrimarySearch_ki.jsp?energyterm=kJ/mole&tag=r21&monomerid=490458&enzyme=Dihydroorotate+dehydrogenase&column=ki&startPg=0&Increment=50&submit=Search

> <PubChem CID>
134474393

> <PubChem SID>
447117185

$$$$

  Mrv2115 07222212352D          

 37 41  0  0  0  0            999 V2000
   -1.8659    1.4455    0.0000 C   0  0  0  0  0  0  0  0  0  0  0  0
   -2.6909    1.4455    0.0000 C   0  0  0  0  0  0  0  0  0  0  0  0
   -3.1034    0.7310    0.0000 O   0  0  0  0  0  0  0  0  0  0  0  0
   -2.6909    0.0165    0.0000 C   0  0  0  0  0  0  0  0  0  0  0  0
   -1.8659    0.0165    0.0000 C   0  0  0  0  0  0  0  0  0  0  0  0
   -1.4534   -0.6979    0.0000 C   0  0  0  0  0  0  0  0  0  0  0  0
   -0.6284   -0.6979    0.0000 N   0  0  0  0  0  0  0  0  0  0  0  0
   -0.1435   -1.3654    0.0000 N   0  0  0  0  0  0  0  0  0  0  0  0
    0.6411   -1.1104    0.0000 C   0  0  0  0  0  0  0  0  0  0  0  0
    0.6411   -0.2854    0.0000 N   0  0  0  0  0  0  0  0  0  0  0  0
   -0.1435   -0.0305    0.0000 C   0  0  0  0  0  0  0  0  0  0  0  0
   -0.3984    0.7541    0.0000 O   0  0  0  0  0  0  0  0  0  0  0  0
    1.3556    0.1271    0.0000 C   0  0  0  0  0  0  0  0  0  0  0  0
    2.0701   -0.2854    0.0000 C   0  0  0  0  0  0  0  0  0  0  0  0
    2.0701   -1.1104    0.0000 C   0  0  0  0  0  0  0  0  0  0  0  0
    1.3556   -1.5229    0.0000 C   0  0  0  0  0  0  0  0  0  0  0  0
   -1.8659   -1.4124    0.0000 C   0  0  0  0  0  0  0  0  0  0  0  0
   -1.4534   -2.1269    0.0000 F   0  0  0  0  0  0  0  0  0  0  0  0
   -2.6909   -1.4124    0.0000 C   0  0  0  0  0  0  0  0  0  0  0  0
   -3.1034   -0.6979    0.0000 C   0  0  0  0  0  0  0  0  0  0  0  0
   -3.9284   -0.6979    0.0000 C   0  0  0  0  0  0  0  0  0  0  0  0
   -4.3409    0.0165    0.0000 O   0  0  0  0  0  0  0  0  0  0  0  0
   -4.3409   -1.4124    0.0000 N   0  0  0  0  0  0  0  0  0  0  0  0
   -3.9284   -2.1269    0.0000 C   0  0  0  0  0  0  0  0  0  0  0  0
   -3.1034   -2.1269    0.0000 C   0  0  0  0  0  0  0  0  0  0  0  0
   -2.6909   -2.8414    0.0000 C   0  0  0  0  0  0  0  0  0  0  0  0
   -3.1034   -3.5558    0.0000 C   0  0  0  0  0  0  0  0  0  0  0  0
   -2.6909   -4.2703    0.0000 F   0  0  0  0  0  0  0  0  0  0  0  0
   -3.9284   -3.5558    0.0000 C   0  0  0  0  0  0  0  0  0  0  0  0
   -4.3409   -2.8414    0.0000 C   0  0  0  0  0  0  0  0  0  0  0  0
   -5.1659   -2.8414    0.0000 F   0  0  0  0  0  0  0  0  0  0  0  0
   -3.1034    2.1599    0.0000 C   0  0  0  0  0  0  0  0  0  0  0  0
   -3.9284    2.1599    0.0000 C   0  0  0  0  0  0  0  0  0  0  0  0
   -4.3409    2.8744    0.0000 C   0  0  0  0  0  0  0  0  0  0  0  0
   -3.9284    3.5889    0.0000 C   0  0  0  0  0  0  0  0  0  0  0  0
   -3.1034    3.5889    0.0000 C   0  0  0  0  0  0  0  0  0  0  0  0
   -2.6909    2.8744    0.0000 C   0  0  0  0  0  0  0  0  0  0  0  0
  1  2  1  0  0  0  0
  2  3  1  0  0  0  0
  3  4  1  0  0  0  0
  4  5  4  0  0  0  0
  5  6  4  0  0  0  0
  6  7  1  0  0  0  0
  7  8  4  0  0  0  0
  8  9  4  0  0  0  0
  9 10  4  0  0  0  0
 10 11  4  0  0  0  0
  7 11  4  0  0  0  0
 11 12  2  0  0  0  0
 10 13  1  0  0  0  0
 13 14  1  0  0  0  0
 14 15  1  0  0  0  0
 15 16  1  0  0  0  0
  9 16  1  0  0  0  0
  6 17  4  0  0  0  0
 17 18  1  0  0  0  0
 17 19  4  0  0  0  0
 19 20  4  0  0  0  0
  4 20  4  0  0  0  0
 20 21  1  0  0  0  0
 21 22  2  0  0  0  0
 21 23  1  0  0  0  0
 23 24  1  0  0  0  0
 24 25  4  0  0  0  0
 25 26  4  0  0  0  0
 26 27  4  0  0  0  0
 27 28  1  0  0  0  0
 27 29  4  0  0  0  0
 29 30  4  0  0  0  0
 24 30  4  0  0  0  0
 30 31  1  0  0  0  0
  2 32  1  0  0  0  0
 32 33  1  0  0  0  0
 33 34  1  0  0  0  0
 34 35  1  0  0  0  0
 35 36  1  0  0  0  0
 36 37  1  0  0  0  0
 32 37  1  0  0  0  0
M  END
> <IC50(uM)>
0.18

> <Outcome>
1.0

> <BindingDB ID>
1020552

> <BindingDB MonomerID>
490491

> <BindingDB Ligand Name>
2-[(1S)-1-cyclohexylethoxy]-N-(2,4-difluorophenyl)-5-fluoro-4-(3-oxo-5,6,7,8-tetrahydro-[1,2,4]triazolo[4,3-a]pyridin-2(3H)-yl)benzamide::US10968216, Example 159

> <Curation/DataSource>
US Patent

> <Article DOI>
?

> <PMID>
?

> <Patent Number>
US10968216

> <Authors>
Gradl, SN; Nguyen, D; Eis, K; Gunther, J; Stellfeld, T; Janzer, A; Christian, S; Mueller, T; Sheikh, SE; Zhou, HJ; Zhao, C; Sykes, DB; Ferrara, SJ; Liu, K; Herbert, SA; Merz, C; Niehues, M; Nising, CF; Schafer, M; Zimmermann, K; Knablein, J; Thede, K; Faupel, T

> <Link to Ligand in BindingDB>
http://www.bindingdb.org/bind/chemsearch/marvin/MolStructure.jsp?monomerid=490491

> <Link to Ligand-Target Pair in BindingDB>
http://www.bindingdb.org/jsp/dbsearch/PrimarySearch_ki.jsp?energyterm=kJ/mole&tag=r21&monomerid=490491&enzyme=Dihydroorotate+dehydrogenase&column=ki&startPg=0&Increment=50&submit=Search

> <PubChem CID>
134473920

> <PubChem SID>
447117218

$$$$

  Mrv2115 07222212352D          

 25 28  0  0  0  0            999 V2000
    1.4289   -2.4750    0.0000 O   0  0  0  0  0  0  0  0  0  0  0  0
    1.4289   -1.6500    0.0000 C   0  0  0  0  0  0  0  0  0  0  0  0
    0.7145   -1.2375    0.0000 C   0  0  0  0  0  0  0  0  0  0  0  0
    0.0000   -1.6500    0.0000 O   0  0  0  0  0  0  0  0  0  0  0  0
    0.7145   -0.4125    0.0000 C   0  0  0  0  0  0  0  0  0  0  0  0
    0.0000    0.0000    0.0000 N   0  0  0  0  0  0  0  0  0  0  0  0
   -0.7145   -0.4125    0.0000 C   0  0  0  0  0  0  0  0  0  0  0  0
   -1.4289    0.0000    0.0000 C   0  0  0  0  0  0  0  0  0  0  0  0
   -1.4289    0.8250    0.0000 N   0  0  0  0  0  0  0  0  0  0  0  0
   -2.1434    1.2375    0.0000 C   0  0  0  0  0  0  0  0  0  0  0  0
   -2.8579    0.8250    0.0000 C   0  0  0  0  0  0  0  0  0  0  0  0
   -3.5724    1.2375    0.0000 C   0  0  0  0  0  0  0  0  0  0  0  0
   -3.5724    2.0625    0.0000 C   0  0  0  0  0  0  0  0  0  0  0  0
   -2.8579    2.4750    0.0000 C   0  0  0  0  0  0  0  0  0  0  0  0
   -2.1434    2.0625    0.0000 C   0  0  0  0  0  0  0  0  0  0  0  0
   -0.7145    1.2375    0.0000 C   0  0  0  0  0  0  0  0  0  0  0  0
    0.0000    0.8250    0.0000 C   0  0  0  0  0  0  0  0  0  0  0  0
    1.4289    0.0000    0.0000 C   0  0  0  0  0  0  0  0  0  0  0  0
    1.4289    0.8250    0.0000 O   0  0  0  0  0  0  0  0  0  0  0  0
    2.1434   -0.4125    0.0000 C   0  0  0  0  0  0  0  0  0  0  0  0
    2.8579    0.0000    0.0000 C   0  0  0  0  0  0  0  0  0  0  0  0
    3.5724   -0.4125    0.0000 C   0  0  0  0  0  0  0  0  0  0  0  0
    3.5724   -1.2375    0.0000 C   0  0  0  0  0  0  0  0  0  0  0  0
    2.8579   -1.6500    0.0000 C   0  0  0  0  0  0  0  0  0  0  0  0
    2.1434   -1.2375    0.0000 C   0  0  0  0  0  0  0  0  0  0  0  0
  1  2  2  0  0  0  0
  2  3  1  0  0  0  0
  3  4  1  0  0  0  0
  3  5  2  0  0  0  0
  5  6  1  0  0  0  0
  6  7  1  0  0  0  0
  7  8  1  0  0  0  0
  8  9  1  0  0  0  0
  9 10  1  0  0  0  0
 10 11  4  0  0  0  0
 11 12  4  0  0  0  0
 12 13  4  0  0  0  0
 13 14  4  0  0  0  0
 14 15  4  0  0  0  0
 10 15  4  0  0  0  0
  9 16  1  0  0  0  0
 16 17  1  0  0  0  0
  6 17  1  0  0  0  0
  5 18  1  0  0  0  0
 18 19  2  0  0  0  0
 18 20  1  0  0  0  0
 20 21  4  0  0  0  0
 21 22  4  0  0  0  0
 22 23  4  0  0  0  0
 23 24  4  0  0  0  0
 24 25  4  0  0  0  0
 20 25  4  0  0  0  0
  2 25  1  0  0  0  0
M  END
> <IC50(uM)>
6.8

> <Outcome>
0.0

> <BindingDB ID>
51282852

> <BindingDB MonomerID>
50523228

> <BindingDB Ligand Name>
CHEMBL2041119

> <Curation/DataSource>
ChEMBL

> <Article DOI>
10.1016/j.ejmech.2019.02.018

> <PMID>
30776695

> <Patent Number>
?

> <Authors>
Calil, FA; David, JS; Chiappetta, ERC; Fumagalli, F; Mello, RB; Leite, FHA; Castilho, MS; Emery, FS; Nonato, MC

> <Link to Ligand in BindingDB>
http://www.bindingdb.org/bind/chemsearch/marvin/MolStructure.jsp?monomerid=50523228

> <Link to Ligand-Target Pair in BindingDB>
http://www.bindingdb.org/jsp/dbsearch/PrimarySearch_ki.jsp?energyterm=kJ/mole&tag=r21&monomerid=50523228&enzyme=Dihydroorotate+dehydrogenase&column=ki&startPg=0&Increment=50&submit=Search

> <PubChem CID>
70681849

> <PubChem SID>
440731810

$$$$

  Mrv2115 07222212352D          

 35 38  0  0  0  0            999 V2000
   -3.1034    2.1599    0.0000 C   0  0  0  0  0  0  0  0  0  0  0  0
   -2.6909    1.4455    0.0000 C   0  0  0  0  0  0  0  0  0  0  0  0
   -3.1034    0.7310    0.0000 O   0  0  0  0  0  0  0  0  0  0  0  0
   -2.6909    0.0165    0.0000 C   0  0  0  0  0  0  0  0  0  0  0  0
   -1.8659    0.0165    0.0000 C   0  0  0  0  0  0  0  0  0  0  0  0
   -1.4534   -0.6979    0.0000 C   0  0  0  0  0  0  0  0  0  0  0  0
   -0.6284   -0.6979    0.0000 N   0  0  0  0  0  0  0  0  0  0  0  0
   -0.1435   -1.3654    0.0000 N   0  0  0  0  0  0  0  0  0  0  0  0
    0.6411   -1.1104    0.0000 C   0  0  0  0  0  0  0  0  0  0  0  0
    0.6411   -0.2854    0.0000 N   0  0  0  0  0  0  0  0  0  0  0  0
   -0.1435   -0.0305    0.0000 C   0  0  0  0  0  0  0  0  0  0  0  0
   -0.3984    0.7541    0.0000 O   0  0  0  0  0  0  0  0  0  0  0  0
    1.3556    0.1271    0.0000 C   0  0  0  0  0  0  0  0  0  0  0  0
    2.0701   -0.2854    0.0000 C   0  0  0  0  0  0  0  0  0  0  0  0
    2.0701   -1.1104    0.0000 C   0  0  0  0  0  0  0  0  0  0  0  0
    1.3556   -1.5229    0.0000 C   0  0  0  0  0  0  0  0  0  0  0  0
   -1.8659   -1.4124    0.0000 C   0  0  0  0  0  0  0  0  0  0  0  0
   -1.4534   -2.1269    0.0000 Cl  0  0  0  0  0  0  0  0  0  0  0  0
   -2.6909   -1.4124    0.0000 C   0  0  0  0  0  0  0  0  0  0  0  0
   -3.1034   -0.6979    0.0000 C   0  0  0  0  0  0  0  0  0  0  0  0
   -3.9284   -0.6979    0.0000 C   0  0  0  0  0  0  0  0  0  0  0  0
   -4.3409    0.0165    0.0000 O   0  0  0  0  0  0  0  0  0  0  0  0
   -4.3409   -1.4124    0.0000 N   0  0  0  0  0  0  0  0  0  0  0  0
   -5.1659   -1.4124    0.0000 C   0  0  0  0  0  0  0  0  0  0  0  0
   -5.5784   -2.1269    0.0000 C   0  0  0  0  0  0  0  0  0  0  0  0
   -5.1659   -2.8414    0.0000 F   0  0  0  0  0  0  0  0  0  0  0  0
   -6.4034   -2.1269    0.0000 C   0  0  0  0  0  0  0  0  0  0  0  0
   -6.8159   -1.4124    0.0000 C   0  0  0  0  0  0  0  0  0  0  0  0
   -6.4034   -0.6979    0.0000 C   0  0  0  0  0  0  0  0  0  0  0  0
   -5.5784   -0.6979    0.0000 C   0  0  0  0  0  0  0  0  0  0  0  0
   -5.1659    0.0165    0.0000 F   0  0  0  0  0  0  0  0  0  0  0  0
   -1.8659    1.4455    0.0000 C   0  0  0  0  0  0  0  0  0  0  0  0
   -1.8659    0.6205    0.0000 F   0  0  0  0  0  0  0  0  0  0  0  0
   -1.8659    2.2705    0.0000 F   0  0  0  0  0  0  0  0  0  0  0  0
   -1.0409    1.4455    0.0000 F   0  0  0  0  0  0  0  0  0  0  0  0
  1  2  1  0  0  0  0
  2  3  1  0  0  0  0
  3  4  1  0  0  0  0
  4  5  4  0  0  0  0
  5  6  4  0  0  0  0
  6  7  1  0  0  0  0
  7  8  4  0  0  0  0
  8  9  4  0  0  0  0
  9 10  4  0  0  0  0
 10 11  4  0  0  0  0
  7 11  4  0  0  0  0
 11 12  2  0  0  0  0
 10 13  1  0  0  0  0
 13 14  1  0  0  0  0
 14 15  1  0  0  0  0
 15 16  1  0  0  0  0
  9 16  1  0  0  0  0
  6 17  4  0  0  0  0
 17 18  1  0  0  0  0
 17 19  4  0  0  0  0
 19 20  4  0  0  0  0
  4 20  4  0  0  0  0
 20 21  1  0  0  0  0
 21 22  2  0  0  0  0
 21 23  1  0  0  0  0
 23 24  1  0  0  0  0
 24 25  4  0  0  0  0
 25 26  1  0  0  0  0
 25 27  4  0  0  0  0
 27 28  4  0  0  0  0
 28 29  4  0  0  0  0
 29 30  4  0  0  0  0
 24 30  4  0  0  0  0
 30 31  1  0  0  0  0
  2 32  1  0  0  0  0
 32 33  1  0  0  0  0
 32 34  1  0  0  0  0
 32 35  1  0  0  0  0
M  END
> <IC50(uM)>
0.24

> <Outcome>
1.0

> <BindingDB ID>
1020687

> <BindingDB MonomerID>
490613

> <BindingDB Ligand Name>
5-chloro-N-(2,6-difluorophenyl)-4-(3-oxo-5,6,7,8-tetrahydro[1,2,4]triazolo[4,3-a]pyridin-2(3H)-yl)-2-{[(2S)-1,1,1-trifluoropropan-2-yl]oxy}benzamide::US10968216, Example 281

> <Curation/DataSource>
US Patent

> <Article DOI>
?

> <PMID>
?

> <Patent Number>
US10968216

> <Authors>
Gradl, SN; Nguyen, D; Eis, K; Gunther, J; Stellfeld, T; Janzer, A; Christian, S; Mueller, T; Sheikh, SE; Zhou, HJ; Zhao, C; Sykes, DB; Ferrara, SJ; Liu, K; Herbert, SA; Merz, C; Niehues, M; Nising, CF; Schafer, M; Zimmermann, K; Knablein, J; Thede, K; Faupel, T

> <Link to Ligand in BindingDB>
http://www.bindingdb.org/bind/chemsearch/marvin/MolStructure.jsp?monomerid=490613

> <Link to Ligand-Target Pair in BindingDB>
http://www.bindingdb.org/jsp/dbsearch/PrimarySearch_ki.jsp?energyterm=kJ/mole&tag=r21&monomerid=490613&enzyme=Dihydroorotate+dehydrogenase&column=ki&startPg=0&Increment=50&submit=Search

> <PubChem CID>
134474461

> <PubChem SID>
447117339

$$$$

  Mrv2115 07222212352D          

 18 19  0  0  0  0            999 V2000
    2.0367   -0.4741    0.0000 C   0  0  0  0  0  0  0  0  0  0  0  0
    2.0367   -1.2991    0.0000 C   0  0  0  0  0  0  0  0  0  0  0  0
    2.7041   -1.7840    0.0000 N   0  0  0  0  0  0  0  0  0  0  0  0
    2.4492   -2.5687    0.0000 N   0  0  0  0  0  0  0  0  0  0  0  0
    1.6242   -2.5687    0.0000 C   0  0  0  0  0  0  0  0  0  0  0  0
    1.1393   -3.2361    0.0000 N   0  0  0  0  0  0  0  0  0  0  0  0
    0.3188   -3.1499    0.0000 C   0  0  0  0  0  0  0  0  0  0  0  0
   -0.1661   -3.8173    0.0000 C   0  0  0  0  0  0  0  0  0  0  0  0
   -0.9866   -3.7311    0.0000 C   0  0  0  0  0  0  0  0  0  0  0  0
   -1.3222   -2.9774    0.0000 C   0  0  0  0  0  0  0  0  0  0  0  0
   -2.1426   -2.8911    0.0000 N   0  3  0  0  0  0  0  0  0  0  0  0
   -2.6276   -3.5586    0.0000 O   0  0  0  0  0  0  0  0  0  0  0  0
   -2.4782   -2.1375    0.0000 O   0  5  0  0  0  0  0  0  0  0  0  0
   -0.8372   -2.3099    0.0000 C   0  0  0  0  0  0  0  0  0  0  0  0
   -0.0168   -2.3962    0.0000 C   0  0  0  0  0  0  0  0  0  0  0  0
    1.3693   -1.7840    0.0000 C   0  0  0  0  0  0  0  0  0  0  0  0
    0.5846   -1.5291    0.0000 C   0  0  0  0  0  0  0  0  0  0  0  0
   -0.2000   -1.2742    0.0000 N   0  0  0  0  0  0  0  0  0  0  0  0
  1  2  1  0  0  0  0
  2  3  4  0  0  0  0
  3  4  4  0  0  0  0
  4  5  4  0  0  0  0
  5  6  1  0  0  0  0
  6  7  1  0  0  0  0
  7  8  4  0  0  0  0
  8  9  4  0  0  0  0
  9 10  4  0  0  0  0
 10 11  1  0  0  0  0
 11 12  2  0  0  0  0
 11 13  1  0  0  0  0
 10 14  4  0  0  0  0
 14 15  4  0  0  0  0
  7 15  4  0  0  0  0
  5 16  4  0  0  0  0
  2 16  4  0  0  0  0
 16 17  1  0  0  0  0
 17 18  3  0  0  0  0
M  CHG  2  11   1  13  -1
M  STY  1   1 DAT
M  SAL   1  1   4
M  SDT   1 MRV_IMPLICIT_H                                        
M  SDD   1     0.5304   -0.4125    DR    ALL  0       0  
M  SED   1 IMPL_H1
M  END
> <IC50(uM)>
9.0

> <Outcome>
0.0

> <BindingDB ID>
50786778

> <BindingDB MonomerID>
50066585

> <BindingDB Ligand Name>
5-Methyl-3-(4-nitro-phenylamino)-1H-pyrazole-4-carbonitrile::CHEMBL333344

> <Curation/DataSource>
ChEMBL

> <Article DOI>
10.1021/jm981028c

> <PMID>
9719606

> <Patent Number>
?

> <Authors>
Papageorgiou, C; Albert, R; Floersheim, P; Lemaire, M; Bitch, F; Weber, HP; Andersen, E; Hungerford, V; Schreier, MH

> <Link to Ligand in BindingDB>
http://www.bindingdb.org/bind/chemsearch/marvin/MolStructure.jsp?monomerid=50066585

> <Link to Ligand-Target Pair in BindingDB>
http://www.bindingdb.org/jsp/dbsearch/PrimarySearch_ki.jsp?energyterm=kJ/mole&tag=r21&monomerid=50066585&enzyme=Dihydroorotate+dehydrogenase&column=ki&startPg=0&Increment=50&submit=Search

> <PubChem CID>
10752727

> <PubChem SID>
103961205

$$$$

  Mrv2115 07222212352D          

 28 31  0  0  0  0            999 V2000
   -2.6462   -3.5558    0.0000 C   0  0  0  0  0  0  0  0  0  0  0  0
   -3.0587   -2.8414    0.0000 C   0  0  0  0  0  0  0  0  0  0  0  0
   -3.8837   -2.8414    0.0000 O   0  0  0  0  0  0  0  0  0  0  0  0
   -2.6462   -2.1269    0.0000 N   0  0  0  0  0  0  0  0  0  0  0  0
   -3.0587   -1.4124    0.0000 C   0  0  0  0  0  0  0  0  0  0  0  0
   -3.8837   -1.4124    0.0000 C   0  0  0  0  0  0  0  0  0  0  0  0
   -4.2962   -0.6979    0.0000 C   0  0  0  0  0  0  0  0  0  0  0  0
   -3.8837    0.0165    0.0000 C   0  0  0  0  0  0  0  0  0  0  0  0
   -3.0587    0.0165    0.0000 C   0  0  0  0  0  0  0  0  0  0  0  0
   -2.6462   -0.6979    0.0000 C   0  0  0  0  0  0  0  0  0  0  0  0
   -1.8212   -0.6979    0.0000 C   0  0  0  0  0  0  0  0  0  0  0  0
   -1.4087    0.0165    0.0000 C   0  0  0  0  0  0  0  0  0  0  0  0
   -0.5837    0.0165    0.0000 C   0  0  0  0  0  0  0  0  0  0  0  0
   -0.1712   -0.6979    0.0000 C   0  0  0  0  0  0  0  0  0  0  0  0
    0.6538   -0.6979    0.0000 C   0  0  0  0  0  0  0  0  0  0  0  0
    1.1387   -0.0305    0.0000 N   0  0  0  0  0  0  0  0  0  0  0  0
    1.9233   -0.2854    0.0000 C   0  0  0  0  0  0  0  0  0  0  0  0
    2.6378    0.1271    0.0000 C   0  0  0  0  0  0  0  0  0  0  0  0
    2.6378    0.9521    0.0000 C   0  0  0  0  0  0  0  0  0  0  0  0
    1.9233    1.3646    0.0000 N   0  0  0  0  0  0  0  0  0  0  0  0
    3.3523    1.3646    0.0000 O   0  0  0  0  0  0  0  0  0  0  0  0
    3.3523   -0.2854    0.0000 C   0  0  0  0  0  0  0  0  0  0  0  0
    3.3523   -1.1104    0.0000 C   0  0  0  0  0  0  0  0  0  0  0  0
    2.6378   -1.5229    0.0000 C   0  0  0  0  0  0  0  0  0  0  0  0
    1.9233   -1.1104    0.0000 C   0  0  0  0  0  0  0  0  0  0  0  0
    1.1387   -1.3654    0.0000 N   0  0  0  0  0  0  0  0  0  0  0  0
   -0.5837   -1.4124    0.0000 C   0  0  0  0  0  0  0  0  0  0  0  0
   -1.4087   -1.4124    0.0000 C   0  0  0  0  0  0  0  0  0  0  0  0
  1  2  1  0  0  0  0
  2  3  2  0  0  0  0
  2  4  1  0  0  0  0
  4  5  1  0  0  0  0
  5  6  4  0  0  0  0
  6  7  4  0  0  0  0
  7  8  4  0  0  0  0
  8  9  4  0  0  0  0
  9 10  4  0  0  0  0
  5 10  4  0  0  0  0
 10 11  1  0  0  0  0
 11 12  4  0  0  0  0
 12 13  4  0  0  0  0
 13 14  4  0  0  0  0
 14 15  1  0  0  0  0
 15 16  4  0  0  0  0
 16 17  4  0  0  0  0
 17 18  4  0  0  0  0
 18 19  1  0  0  0  0
 19 20  1  0  0  0  0
 19 21  2  0  0  0  0
 18 22  4  0  0  0  0
 22 23  4  0  0  0  0
 23 24  4  0  0  0  0
 24 25  4  0  0  0  0
 17 25  4  0  0  0  0
 25 26  4  0  0  0  0
 15 26  4  0  0  0  0
 14 27  4  0  0  0  0
 27 28  4  0  0  0  0
 11 28  4  0  0  0  0
M  STY  1   1 DAT
M  SAL   1  1  26
M  SDT   1 MRV_IMPLICIT_H                                        
M  SDD   1     0.5304   -0.4125    DR    ALL  0       0  
M  SED   1 IMPL_H1
M  END
> <IC50(uM)>
51.0

> <Outcome>
0.0

> <BindingDB ID>
50358218

> <BindingDB MonomerID>
50096207

> <BindingDB Ligand Name>
CHEMBL3593984

> <Curation/DataSource>
ChEMBL

> <Article DOI>
10.1016/j.bmc.2015.05.051

> <PMID>
26088338

> <Patent Number>
?

> <Authors>
Abdullah, I; Chee, CF; Lee, YK; Thunuguntla, SS; Satish Reddy, K; Nellore, K; Antony, T; Verma, J; Mun, KW; Othman, S; Subramanya, H; Rahman, NA

> <Link to Ligand in BindingDB>
http://www.bindingdb.org/bind/chemsearch/marvin/MolStructure.jsp?monomerid=50096207

> <Link to Ligand-Target Pair in BindingDB>
http://www.bindingdb.org/jsp/dbsearch/PrimarySearch_ki.jsp?energyterm=kJ/mole&tag=r21&monomerid=50096207&enzyme=Dihydroorotate+dehydrogenase&column=ki&startPg=0&Increment=50&submit=Search

> <PubChem CID>
122182312

> <PubChem SID>
103993774

$$$$

  Mrv2115 07222212352D          

 35 38  0  0  0  0            999 V2000
    6.7857   -4.3790    0.0000 C   0  0  0  0  0  0  0  0  0  0  0  0
    5.9652   -4.2927    0.0000 C   0  0  0  0  0  0  0  0  0  0  0  0
    5.6296   -3.5391    0.0000 O   0  0  0  0  0  0  0  0  0  0  0  0
    4.8092   -3.4528    0.0000 C   0  0  0  0  0  0  0  0  0  0  0  0
    4.3242   -4.1203    0.0000 C   0  0  0  0  0  0  0  0  0  0  0  0
    3.5038   -4.0340    0.0000 C   0  0  0  0  0  0  0  0  0  0  0  0
    3.0188   -4.7015    0.0000 N   0  0  0  0  0  0  0  0  0  0  0  0
    3.2738   -5.4861    0.0000 N   0  0  0  0  0  0  0  0  0  0  0  0
    2.6063   -5.9710    0.0000 C   0  0  0  0  0  0  0  0  0  0  0  0
    2.6063   -6.7960    0.0000 C   0  0  0  0  0  0  0  0  0  0  0  0
    3.0188   -7.5105    0.0000 C   0  0  0  0  0  0  0  0  0  0  0  0
    2.1938   -7.5105    0.0000 C   0  0  0  0  0  0  0  0  0  0  0  0
    1.9389   -5.4861    0.0000 N   0  0  0  0  0  0  0  0  0  0  0  0
    1.1543   -5.7410    0.0000 C   0  0  0  0  0  0  0  0  0  0  0  0
    2.1938   -4.7015    0.0000 C   0  0  0  0  0  0  0  0  0  0  0  0
    1.7089   -4.0340    0.0000 O   0  0  0  0  0  0  0  0  0  0  0  0
    3.1682   -3.2804    0.0000 C   0  0  0  0  0  0  0  0  0  0  0  0
    2.3477   -3.1941    0.0000 F   0  0  0  0  0  0  0  0  0  0  0  0
    3.6531   -2.6129    0.0000 C   0  0  0  0  0  0  0  0  0  0  0  0
    4.4736   -2.6992    0.0000 C   0  0  0  0  0  0  0  0  0  0  0  0
    4.9585   -2.0317    0.0000 C   0  0  0  0  0  0  0  0  0  0  0  0
    5.7790   -2.1180    0.0000 O   0  0  0  0  0  0  0  0  0  0  0  0
    4.6230   -1.2780    0.0000 N   0  0  0  0  0  0  0  0  0  0  0  0
    5.1079   -0.6106    0.0000 C   0  0  0  0  0  0  0  0  0  0  0  0
    4.7723    0.1431    0.0000 C   0  0  0  0  0  0  0  0  0  0  0  0
    3.9519    0.2293    0.0000 F   0  0  0  0  0  0  0  0  0  0  0  0
    5.2573    0.8105    0.0000 C   0  0  0  0  0  0  0  0  0  0  0  0
    6.0777    0.7243    0.0000 C   0  0  0  0  0  0  0  0  0  0  0  0
    6.4133   -0.0294    0.0000 C   0  0  0  0  0  0  0  0  0  0  0  0
    5.9284   -0.6968    0.0000 C   0  0  0  0  0  0  0  0  0  0  0  0
    6.2639   -1.4505    0.0000 F   0  0  0  0  0  0  0  0  0  0  0  0
    5.4803   -4.9602    0.0000 C   0  0  0  0  0  0  0  0  0  0  0  0
    4.8128   -4.4753    0.0000 F   0  0  0  0  0  0  0  0  0  0  0  0
    6.1477   -5.4451    0.0000 F   0  0  0  0  0  0  0  0  0  0  0  0
    4.9954   -5.6276    0.0000 F   0  0  0  0  0  0  0  0  0  0  0  0
  1  2  1  0  0  0  0
  2  3  1  0  0  0  0
  3  4  1  0  0  0  0
  4  5  4  0  0  0  0
  5  6  4  0  0  0  0
  6  7  1  0  0  0  0
  7  8  4  0  0  0  0
  8  9  4  0  0  0  0
  9 10  1  0  0  0  0
 10 11  1  0  0  0  0
 11 12  1  0  0  0  0
 10 12  1  0  0  0  0
  9 13  4  0  0  0  0
 13 14  1  0  0  0  0
 13 15  4  0  0  0  0
  7 15  4  0  0  0  0
 15 16  2  0  0  0  0
  6 17  4  0  0  0  0
 17 18  1  0  0  0  0
 17 19  4  0  0  0  0
 19 20  4  0  0  0  0
  4 20  4  0  0  0  0
 20 21  1  0  0  0  0
 21 22  2  0  0  0  0
 21 23  1  0  0  0  0
 23 24  1  0  0  0  0
 24 25  4  0  0  0  0
 25 26  1  0  0  0  0
 25 27  4  0  0  0  0
 27 28  4  0  0  0  0
 28 29  4  0  0  0  0
 29 30  4  0  0  0  0
 24 30  4  0  0  0  0
 30 31  1  0  0  0  0
  2 32  1  0  0  0  0
 32 33  1  0  0  0  0
 32 34  1  0  0  0  0
 32 35  1  0  0  0  0
M  END
> <IC50(uM)>
0.017

> <Outcome>
1.0

> <BindingDB ID>
1098667; 972513

> <BindingDB MonomerID>
470388

> <BindingDB Ligand Name>
4-(3-cyclopropyl-4-methyl-5-oxo-4,5-dihydro-1H-1,2,4-triazol-1-yl)-N-(2,6-difluorophenyl)-5-fluoro-2-{[(2S)-1,1,1-trifluoropropan-2-yl]oxy}benzamide::US10815215, Example 47::US11130745, Example 47; 4-(3-cyclopropyl-4-methyl-5-oxo-4,5-dihydro-1H-1,2,4-triazol-1-yl)-N-(2,6-difluorophenyl)-5-fluoro-2-{[(2S)-1,1,1-trifluoropropan-2-yl]oxy}benzamide::US10815215, Example 47

> <Curation/DataSource>
US Patent

> <Article DOI>
?

> <PMID>
?

> <Patent Number>
US11130745; US10815215

> <Authors>
Gradl, SN; Nguyen, D; Eis, K; Gunther, J; Stellfeld, T; Janzer, A; Christian, S; Muller, T; Sheikh, SE; Sykes, DB; Ferrara, SJ; Krober, M; Merz, C; Niehues, M; Schafer, M; Zimmermann, K; Nising, CF; Gradl, SN; Nguyen, D; Eis, K; Gunther, J; Stellfeld, T; Janzer, A; Christian, S; Muller, T; Sheikh, SE; Zhou, HJ; Zhao, C; Sykes, DB; Ferrara, SJ; Liu, K; Krober, M; Merz, C; Niehues, M; Schafer, M; Zimmermann, K; Nising, CF

> <Link to Ligand in BindingDB>
http://www.bindingdb.org/bind/chemsearch/marvin/MolStructure.jsp?monomerid=470388

> <Link to Ligand-Target Pair in BindingDB>
http://www.bindingdb.org/jsp/dbsearch/PrimarySearch_ki.jsp?energyterm=kJ/mole&tag=r21&monomerid=470388&enzyme=Dihydroorotate+dehydrogenase&column=ki&startPg=0&Increment=50&submit=Search

> <PubChem CID>
134469829

> <PubChem SID>
441609565

$$$$

  Mrv2115 07222212352D          

 19 20  0  0  0  0            999 V2000
    2.0367    0.3509    0.0000 N   0  0  0  0  0  0  0  0  0  0  0  0
    2.0367   -0.4741    0.0000 C   0  0  0  0  0  0  0  0  0  0  0  0
    2.0367   -1.2991    0.0000 C   0  0  0  0  0  0  0  0  0  0  0  0
    2.7041   -1.7840    0.0000 C   0  0  0  0  0  0  0  0  0  0  0  0
    3.4888   -1.5291    0.0000 N   0  0  0  0  0  0  0  0  0  0  0  0
    4.1019   -2.0811    0.0000 C   0  0  0  0  0  0  0  0  0  0  0  0
    4.8865   -1.8262    0.0000 C   0  0  0  0  0  0  0  0  0  0  0  0
    5.4996   -2.3782    0.0000 C   0  0  0  0  0  0  0  0  0  0  0  0
    5.3281   -3.1852    0.0000 C   0  0  0  0  0  0  0  0  0  0  0  0
    5.9411   -3.7372    0.0000 C   0  0  0  0  0  0  0  0  0  0  0  0
    6.5542   -4.2893    0.0000 F   0  0  0  0  0  0  0  0  0  0  0  0
    5.3891   -4.3503    0.0000 F   0  0  0  0  0  0  0  0  0  0  0  0
    6.4932   -3.1241    0.0000 F   0  0  0  0  0  0  0  0  0  0  0  0
    4.5434   -3.4401    0.0000 C   0  0  0  0  0  0  0  0  0  0  0  0
    3.9303   -2.8881    0.0000 C   0  0  0  0  0  0  0  0  0  0  0  0
    2.4492   -2.5687    0.0000 N   0  0  0  0  0  0  0  0  0  0  0  0
    1.6242   -2.5687    0.0000 N   0  0  0  0  0  0  0  0  0  0  0  0
    1.3693   -1.7840    0.0000 C   0  0  0  0  0  0  0  0  0  0  0  0
    0.5846   -1.5291    0.0000 O   0  0  0  0  0  0  0  0  0  0  0  0
  1  2  3  0  0  0  0
  2  3  1  0  0  0  0
  3  4  4  0  0  0  0
  4  5  1  0  0  0  0
  5  6  1  0  0  0  0
  6  7  4  0  0  0  0
  7  8  4  0  0  0  0
  8  9  4  0  0  0  0
  9 10  1  0  0  0  0
 10 11  1  0  0  0  0
 10 12  1  0  0  0  0
 10 13  1  0  0  0  0
  9 14  4  0  0  0  0
 14 15  4  0  0  0  0
  6 15  4  0  0  0  0
  4 16  4  0  0  0  0
 16 17  4  0  0  0  0
 17 18  4  0  0  0  0
  3 18  4  0  0  0  0
 18 19  2  0  0  0  0
M  STY  2   1 DAT   2 DAT
M  SAL   1  1  16
M  SDT   1 MRV_IMPLICIT_H                                        
M  SDD   1     0.5304   -0.4125    DR    ALL  0       0  
M  SED   1 IMPL_H1
M  SAL   2  1  17
M  SDT   2 MRV_IMPLICIT_H                                        
M  SDD   2     0.5304   -0.4125    DR    ALL  0       0  
M  SED   2 IMPL_H1
M  END
> <IC50(uM)>
50.0

> <Outcome>
0.0

> <BindingDB ID>
50786781

> <BindingDB MonomerID>
50066589

> <BindingDB Ligand Name>
5-Hydroxy-3-(4-trifluoromethyl-phenylamino)-1H-pyrazole-4-carbonitrile::CHEMBL333276

> <Curation/DataSource>
ChEMBL

> <Article DOI>
10.1021/jm981028c

> <PMID>
9719606

> <Patent Number>
?

> <Authors>
Papageorgiou, C; Albert, R; Floersheim, P; Lemaire, M; Bitch, F; Weber, HP; Andersen, E; Hungerford, V; Schreier, MH

> <Link to Ligand in BindingDB>
http://www.bindingdb.org/bind/chemsearch/marvin/MolStructure.jsp?monomerid=50066589

> <Link to Ligand-Target Pair in BindingDB>
http://www.bindingdb.org/jsp/dbsearch/PrimarySearch_ki.jsp?energyterm=kJ/mole&tag=r21&monomerid=50066589&enzyme=Dihydroorotate+dehydrogenase&column=ki&startPg=0&Increment=50&submit=Search

> <PubChem CID>
10587934

> <PubChem SID>
103961209

$$$$

  Mrv2115 07222212352D          

 22 24  0  0  0  0            999 V2000
    0.2531   -3.8772    0.0000 C   0  0  0  0  0  0  0  0  0  0  0  0
    0.4247   -3.0702    0.0000 C   0  0  0  0  0  0  0  0  0  0  0  0
   -0.1274   -2.4571    0.0000 C   0  0  0  0  0  0  0  0  0  0  0  0
   -0.9478   -2.5434    0.0000 C   0  0  0  0  0  0  0  0  0  0  0  0
   -1.4328   -1.8759    0.0000 C   0  0  0  0  0  0  0  0  0  0  0  0
   -2.2532   -1.9622    0.0000 C   0  0  0  0  0  0  0  0  0  0  0  0
   -2.7382   -1.2947    0.0000 C   0  0  0  0  0  0  0  0  0  0  0  0
   -2.4026   -0.5410    0.0000 C   0  0  0  0  0  0  0  0  0  0  0  0
   -2.8875    0.1264    0.0000 C   0  0  0  0  0  0  0  0  0  0  0  0
   -3.3725    0.7938    0.0000 F   0  0  0  0  0  0  0  0  0  0  0  0
   -3.5550   -0.3585    0.0000 F   0  0  0  0  0  0  0  0  0  0  0  0
   -2.2201    0.6113    0.0000 F   0  0  0  0  0  0  0  0  0  0  0  0
   -1.5821   -0.4548    0.0000 N   0  0  0  0  0  0  0  0  0  0  0  0
   -1.0972   -1.1222    0.0000 C   0  0  0  0  0  0  0  0  0  0  0  0
    0.2851   -1.7426    0.0000 C   0  0  0  0  0  0  0  0  0  0  0  0
    1.0921   -1.9142    0.0000 N   0  0  0  0  0  0  0  0  0  0  0  0
    1.1783   -2.7347    0.0000 C   0  0  0  0  0  0  0  0  0  0  0  0
    1.8928   -3.1472    0.0000 C   0  0  0  0  0  0  0  0  0  0  0  0
    2.6073   -2.7347    0.0000 O   0  0  0  0  0  0  0  0  0  0  0  0
    1.8928   -3.9722    0.0000 C   0  0  0  0  0  0  0  0  0  0  0  0
    2.3053   -4.6866    0.0000 C   0  0  0  0  0  0  0  0  0  0  0  0
    1.4803   -4.6866    0.0000 C   0  0  0  0  0  0  0  0  0  0  0  0
  1  2  1  0  0  0  0
  2  3  4  0  0  0  0
  3  4  1  0  0  0  0
  4  5  1  0  0  0  0
  5  6  4  0  0  0  0
  6  7  4  0  0  0  0
  7  8  4  0  0  0  0
  8  9  1  0  0  0  0
  9 10  1  0  0  0  0
  9 11  1  0  0  0  0
  9 12  1  0  0  0  0
  8 13  4  0  0  0  0
 13 14  4  0  0  0  0
  5 14  4  0  0  0  0
  3 15  4  0  0  0  0
 15 16  4  0  0  0  0
 16 17  4  0  0  0  0
  2 17  4  0  0  0  0
 17 18  1  0  0  0  0
 18 19  2  0  0  0  0
 18 20  1  0  0  0  0
 20 21  1  0  0  0  0
 21 22  1  0  0  0  0
 20 22  1  0  0  0  0
M  STY  1   1 DAT
M  SAL   1  1  16
M  SDT   1 MRV_IMPLICIT_H                                        
M  SDD   1     0.5304   -0.4125    DR    ALL  0       0  
M  SED   1 IMPL_H1
M  END
> <IC50(uM)>
100.0

> <Outcome>
0.0

> <BindingDB ID>
51330102

> <BindingDB MonomerID>
50538350

> <BindingDB Ligand Name>
CHEMBL4639806

> <Curation/DataSource>
ChEMBL

> <Article DOI>
10.1021/acs.jmedchem.0c00311

> <PMID>
32248693

> <Patent Number>
?

> <Authors>
Kokkonda, S; Deng, X; White, KL; El Mazouni, F; White, J; Shackleford, DM; Katneni, K; Chiu, FCK; Barker, H; McLaren, J; Crighton, E; Chen, G; Angulo-Barturen, I; Jimenez-Diaz, MB; Ferrer, S; Huertas-Valentin, L; Martinez-Martinez, MS; Lafuente-Monasterio, MJ; Chittimalla, R; Shahi, SP; Wittlin, S; Waterson, D; Burrows, JN; Matthews, D; Tomchick, D; Rathod, PK; Palmer, MJ; Charman, SA; Phillips, MA

> <Link to Ligand in BindingDB>
http://www.bindingdb.org/bind/chemsearch/marvin/MolStructure.jsp?monomerid=50538350

> <Link to Ligand-Target Pair in BindingDB>
http://www.bindingdb.org/jsp/dbsearch/PrimarySearch_ki.jsp?energyterm=kJ/mole&tag=r21&monomerid=50538350&enzyme=Dihydroorotate+dehydrogenase&column=ki&startPg=0&Increment=50&submit=Search

> <PubChem CID>
156015563

> <PubChem SID>
442139913

$$$$

  Mrv2115 07222212352D          

 34 37  0  0  0  0            999 V2000
   -0.6284    2.1599    0.0000 C   0  0  0  0  0  0  0  0  0  0  0  0
   -1.4534    2.1599    0.0000 C   0  0  0  0  0  0  0  0  0  0  0  0
   -1.8659    1.4455    0.0000 C   0  0  0  0  0  0  0  0  0  0  0  0
   -2.6909    1.4455    0.0000 C   0  0  0  0  0  0  0  0  0  0  0  0
   -3.1034    2.1599    0.0000 C   0  0  0  0  0  0  0  0  0  0  0  0
   -3.1034    0.7310    0.0000 O   0  0  0  0  0  0  0  0  0  0  0  0
   -2.6909    0.0165    0.0000 C   0  0  0  0  0  0  0  0  0  0  0  0
   -1.8659    0.0165    0.0000 C   0  0  0  0  0  0  0  0  0  0  0  0
   -1.4534   -0.6979    0.0000 C   0  0  0  0  0  0  0  0  0  0  0  0
   -0.6284   -0.6979    0.0000 N   0  0  0  0  0  0  0  0  0  0  0  0
   -0.1435   -1.3654    0.0000 N   0  0  0  0  0  0  0  0  0  0  0  0
    0.6411   -1.1104    0.0000 C   0  0  0  0  0  0  0  0  0  0  0  0
    0.6411   -0.2854    0.0000 N   0  0  0  0  0  0  0  0  0  0  0  0
   -0.1435   -0.0305    0.0000 C   0  0  0  0  0  0  0  0  0  0  0  0
   -0.3984    0.7541    0.0000 O   0  0  0  0  0  0  0  0  0  0  0  0
    1.3556    0.1271    0.0000 C   0  0  0  0  0  0  0  0  0  0  0  0
    2.0701   -0.2854    0.0000 C   0  0  0  0  0  0  0  0  0  0  0  0
    2.0701   -1.1104    0.0000 C   0  0  0  0  0  0  0  0  0  0  0  0
    1.3556   -1.5229    0.0000 C   0  0  0  0  0  0  0  0  0  0  0  0
   -1.8659   -1.4124    0.0000 C   0  0  0  0  0  0  0  0  0  0  0  0
   -1.4534   -2.1269    0.0000 F   0  0  0  0  0  0  0  0  0  0  0  0
   -2.6909   -1.4124    0.0000 C   0  0  0  0  0  0  0  0  0  0  0  0
   -3.1034   -0.6979    0.0000 C   0  0  0  0  0  0  0  0  0  0  0  0
   -3.9284   -0.6979    0.0000 C   0  0  0  0  0  0  0  0  0  0  0  0
   -4.3409    0.0165    0.0000 O   0  0  0  0  0  0  0  0  0  0  0  0
   -4.3409   -1.4124    0.0000 N   0  0  0  0  0  0  0  0  0  0  0  0
   -3.9284   -2.1269    0.0000 C   0  0  0  0  0  0  0  0  0  0  0  0
   -3.1034   -2.1269    0.0000 C   0  0  0  0  0  0  0  0  0  0  0  0
   -2.6909   -2.8414    0.0000 C   0  0  0  0  0  0  0  0  0  0  0  0
   -1.8659   -2.8414    0.0000 F   0  0  0  0  0  0  0  0  0  0  0  0
   -3.1034   -3.5558    0.0000 C   0  0  0  0  0  0  0  0  0  0  0  0
   -3.9284   -3.5558    0.0000 C   0  0  0  0  0  0  0  0  0  0  0  0
   -4.3409   -2.8414    0.0000 C   0  0  0  0  0  0  0  0  0  0  0  0
   -5.1659   -2.8414    0.0000 C   0  0  0  0  0  0  0  0  0  0  0  0
  1  2  1  0  0  0  0
  2  3  1  0  0  0  0
  3  4  1  0  0  0  0
  4  5  1  0  0  0  0
  4  6  1  0  0  0  0
  6  7  1  0  0  0  0
  7  8  4  0  0  0  0
  8  9  4  0  0  0  0
  9 10  1  0  0  0  0
 10 11  4  0  0  0  0
 11 12  4  0  0  0  0
 12 13  4  0  0  0  0
 13 14  4  0  0  0  0
 10 14  4  0  0  0  0
 14 15  2  0  0  0  0
 13 16  1  0  0  0  0
 16 17  1  0  0  0  0
 17 18  1  0  0  0  0
 18 19  1  0  0  0  0
 12 19  1  0  0  0  0
  9 20  4  0  0  0  0
 20 21  1  0  0  0  0
 20 22  4  0  0  0  0
 22 23  4  0  0  0  0
  7 23  4  0  0  0  0
 23 24  1  0  0  0  0
 24 25  2  0  0  0  0
 24 26  1  0  0  0  0
 26 27  1  0  0  0  0
 27 28  4  0  0  0  0
 28 29  4  0  0  0  0
 29 30  1  0  0  0  0
 29 31  4  0  0  0  0
 31 32  4  0  0  0  0
 32 33  4  0  0  0  0
 27 33  4  0  0  0  0
 33 34  1  0  0  0  0
M  END
> <IC50(uM)>
0.016

> <Outcome>
1.0

> <BindingDB ID>
1020385

> <BindingDB MonomerID>
490341

> <BindingDB Ligand Name>
5-fluoro-N-(5-fluoro-2-methylphenyl)-4-(3-oxo-5,6,7,8-tetrahydro[1,2,4]triazolo[4,3-a]pyridin-2(3H)-yl)-2-[(2S)-pentan-2-yloxy]benzamide::US10968216, Example 9

> <Curation/DataSource>
US Patent

> <Article DOI>
?

> <PMID>
?

> <Patent Number>
US10968216

> <Authors>
Gradl, SN; Nguyen, D; Eis, K; Gunther, J; Stellfeld, T; Janzer, A; Christian, S; Mueller, T; Sheikh, SE; Zhou, HJ; Zhao, C; Sykes, DB; Ferrara, SJ; Liu, K; Herbert, SA; Merz, C; Niehues, M; Nising, CF; Schafer, M; Zimmermann, K; Knablein, J; Thede, K; Faupel, T

> <Link to Ligand in BindingDB>
http://www.bindingdb.org/bind/chemsearch/marvin/MolStructure.jsp?monomerid=490341

> <Link to Ligand-Target Pair in BindingDB>
http://www.bindingdb.org/jsp/dbsearch/PrimarySearch_ki.jsp?energyterm=kJ/mole&tag=r21&monomerid=490341&enzyme=Dihydroorotate+dehydrogenase&column=ki&startPg=0&Increment=50&submit=Search

> <PubChem CID>
134474471

> <PubChem SID>
447117068

$$$$

  Mrv2115 07222212352D          

 21 23  0  0  0  0            999 V2000
    4.4526   -1.5497    0.0000 C   0  0  0  0  0  0  0  0  0  0  0  0
    4.4526   -2.3747    0.0000 C   0  0  0  0  0  0  0  0  0  0  0  0
    5.1200   -2.8596    0.0000 C   0  0  0  0  0  0  0  0  0  0  0  0
    4.8651   -3.6443    0.0000 C   0  0  0  0  0  0  0  0  0  0  0  0
    4.0401   -3.6443    0.0000 C   0  0  0  0  0  0  0  0  0  0  0  0
    3.5551   -4.3117    0.0000 C   0  0  0  0  0  0  0  0  0  0  0  0
    3.8907   -5.0654    0.0000 C   0  0  0  0  0  0  0  0  0  0  0  0
    4.6977   -5.2369    0.0000 S   0  0  0  0  0  0  0  0  0  0  0  0
    4.7839   -6.0574    0.0000 C   0  0  0  0  0  0  0  0  0  0  0  0
    5.4984   -6.4699    0.0000 S   0  0  0  0  0  0  0  0  0  0  0  0
    4.0302   -6.3929    0.0000 N   0  0  0  0  0  0  0  0  0  0  0  0
    3.8587   -7.1999    0.0000 C   0  0  0  0  0  0  0  0  0  0  0  0
    3.0741   -7.4548    0.0000 C   0  0  0  0  0  0  0  0  0  0  0  0
    2.9025   -8.2618    0.0000 C   0  0  0  0  0  0  0  0  0  0  0  0
    2.1179   -8.5168    0.0000 C   0  0  0  0  0  0  0  0  0  0  0  0
    1.5048   -7.9647    0.0000 C   0  0  0  0  0  0  0  0  0  0  0  0
    1.6764   -7.1578    0.0000 C   0  0  0  0  0  0  0  0  0  0  0  0
    2.4610   -6.9028    0.0000 C   0  0  0  0  0  0  0  0  0  0  0  0
    3.4782   -5.7798    0.0000 C   0  0  0  0  0  0  0  0  0  0  0  0
    2.6577   -5.8661    0.0000 O   0  0  0  0  0  0  0  0  0  0  0  0
    3.7851   -2.8596    0.0000 O   0  0  0  0  0  0  0  0  0  0  0  0
  1  2  1  0  0  0  0
  2  3  4  0  0  0  0
  3  4  4  0  0  0  0
  4  5  4  0  0  0  0
  5  6  1  0  0  0  0
  6  7  2  0  0  0  0
  7  8  1  0  0  0  0
  8  9  1  0  0  0  0
  9 10  2  0  0  0  0
  9 11  1  0  0  0  0
 11 12  1  0  0  0  0
 12 13  1  0  0  0  0
 13 14  4  0  0  0  0
 14 15  4  0  0  0  0
 15 16  4  0  0  0  0
 16 17  4  0  0  0  0
 17 18  4  0  0  0  0
 13 18  4  0  0  0  0
 11 19  1  0  0  0  0
  7 19  1  0  0  0  0
 19 20  2  0  0  0  0
  5 21  4  0  0  0  0
  2 21  4  0  0  0  0
M  END
> <IC50(uM)>
50.0

> <Outcome>
0.0

> <BindingDB ID>
51079184

> <BindingDB MonomerID>
50165

> <BindingDB Ligand Name>
(5Z)-3-benzyl-5-[(5-methyl-2-furyl)methylene]-2-thioxo-thiazolidin-4-one::(5Z)-3-benzyl-5-[(5-methylfuran-2-yl)methylidene]-2-sulfanylidene-1,3-thiazolidin-4-one::(5Z)-5-[(5-methyl-2-furanyl)methylidene]-3-(phenylmethyl)-2-sulfanylidene-4-thiazolidinone::(5Z)-5-[(5-methylfuran-2-yl)methylidene]-3-(phenylmethyl)-2-sulfanylidene-1,3-thiazolidin-4-one::3-benzyl-5-[(5-methyl-2-furyl)methylene]-2-thioxo-1,3-thiazolidin-4-one::MLS000575978::SMR000197009::cid_1328586

> <Curation/DataSource>
ChEMBL

> <Article DOI>
10.1021/jm400938g

> <PMID>
24073986

> <Patent Number>
?

> <Authors>
Xu, M; Zhu, J; Diao, Y; Zhou, H; Ren, X; Sun, D; Huang, J; Han, D; Zhao, Z; Zhu, L; Xu, Y; Li, H

> <Link to Ligand in BindingDB>
http://www.bindingdb.org/bind/chemsearch/marvin/MolStructure.jsp?monomerid=50165

> <Link to Ligand-Target Pair in BindingDB>
http://www.bindingdb.org/jsp/dbsearch/PrimarySearch_ki.jsp?energyterm=kJ/mole&tag=r21&monomerid=50165&enzyme=Dihydroorotate+dehydrogenase&column=ki&startPg=0&Increment=50&submit=Search

> <PubChem CID>
1328586

> <PubChem SID>
252630434

$$$$

  Mrv2115 07222212352D          

 37 41  0  0  0  0            999 V2000
    4.0668    2.3479    0.0000 C   0  0  0  0  0  0  0  0  0  0  0  0
    3.3523    1.9354    0.0000 C   0  0  0  0  0  0  0  0  0  0  0  0
    3.3523    1.1104    0.0000 C   0  0  0  0  0  0  0  0  0  0  0  0
    2.6378    0.6979    0.0000 C   0  0  0  0  0  0  0  0  0  0  0  0
    2.6378   -0.1271    0.0000 C   0  0  0  0  0  0  0  0  0  0  0  0
    1.9233   -0.5396    0.0000 O   0  0  0  0  0  0  0  0  0  0  0  0
    3.3523   -0.5396    0.0000 O   0  0  0  0  0  0  0  0  0  0  0  0
    1.9233    1.1104    0.0000 C   0  0  0  0  0  0  0  0  0  0  0  0
    1.1387    0.8555    0.0000 N   0  0  0  0  0  0  0  0  0  0  0  0
    0.6538    1.5229    0.0000 C   0  0  0  0  0  0  0  0  0  0  0  0
   -0.1712    1.5229    0.0000 C   0  0  0  0  0  0  0  0  0  0  0  0
   -0.5837    0.8085    0.0000 C   0  0  0  0  0  0  0  0  0  0  0  0
   -0.1712    0.0940    0.0000 F   0  0  0  0  0  0  0  0  0  0  0  0
   -1.4087    0.8085    0.0000 C   0  0  0  0  0  0  0  0  0  0  0  0
   -1.8212    0.0940    0.0000 F   0  0  0  0  0  0  0  0  0  0  0  0
   -1.8212    1.5229    0.0000 C   0  0  0  0  0  0  0  0  0  0  0  0
   -2.6462    1.5229    0.0000 C   0  0  0  0  0  0  0  0  0  0  0  0
   -3.0587    0.8085    0.0000 C   0  0  0  0  0  0  0  0  0  0  0  0
   -3.8837    0.8085    0.0000 C   0  0  0  0  0  0  0  0  0  0  0  0
   -4.2962    1.5229    0.0000 C   0  0  0  0  0  0  0  0  0  0  0  0
   -3.8837    2.2374    0.0000 C   0  0  0  0  0  0  0  0  0  0  0  0
   -4.2962    2.9519    0.0000 N   0  0  0  0  0  0  0  0  0  0  0  0
   -5.1212    2.9519    0.0000 C   0  0  0  0  0  0  0  0  0  0  0  0
   -5.5337    2.2374    0.0000 O   0  0  0  0  0  0  0  0  0  0  0  0
   -5.5337    3.6664    0.0000 C   0  0  0  0  0  0  0  0  0  0  0  0
   -6.3542    3.7526    0.0000 C   0  0  0  0  0  0  0  0  0  0  0  0
   -6.5257    4.5596    0.0000 C   0  0  0  0  0  0  0  0  0  0  0  0
   -5.8112    4.9721    0.0000 C   0  0  0  0  0  0  0  0  0  0  0  0
   -5.1981    4.4200    0.0000 N   0  0  0  0  0  0  0  0  0  0  0  0
   -3.0587    2.2374    0.0000 C   0  0  0  0  0  0  0  0  0  0  0  0
   -1.4087    2.2374    0.0000 C   0  0  0  0  0  0  0  0  0  0  0  0
   -1.8212    2.9519    0.0000 F   0  0  0  0  0  0  0  0  0  0  0  0
   -0.5837    2.2374    0.0000 C   0  0  0  0  0  0  0  0  0  0  0  0
   -0.1712    2.9519    0.0000 F   0  0  0  0  0  0  0  0  0  0  0  0
    1.1387    2.1904    0.0000 N   0  0  0  0  0  0  0  0  0  0  0  0
    1.9233    1.9354    0.0000 C   0  0  0  0  0  0  0  0  0  0  0  0
    2.6378    2.3479    0.0000 C   0  0  0  0  0  0  0  0  0  0  0  0
  1  2  1  0  0  0  0
  2  3  4  0  0  0  0
  3  4  4  0  0  0  0
  4  5  1  0  0  0  0
  5  6  2  0  0  0  0
  5  7  1  0  0  0  0
  4  8  4  0  0  0  0
  8  9  4  0  0  0  0
  9 10  4  0  0  0  0
 10 11  1  0  0  0  0
 11 12  4  0  0  0  0
 12 13  1  0  0  0  0
 12 14  4  0  0  0  0
 14 15  1  0  0  0  0
 14 16  4  0  0  0  0
 16 17  1  0  0  0  0
 17 18  4  0  0  0  0
 18 19  4  0  0  0  0
 19 20  4  0  0  0  0
 20 21  4  0  0  0  0
 21 22  1  0  0  0  0
 22 23  1  0  0  0  0
 23 24  2  0  0  0  0
 23 25  1  0  0  0  0
 25 26  1  0  0  0  0
 26 27  1  0  0  0  0
 27 28  1  0  0  0  0
 28 29  1  0  0  0  0
 25 29  1  0  0  0  0
 21 30  4  0  0  0  0
 17 30  4  0  0  0  0
 16 31  4  0  0  0  0
 31 32  1  0  0  0  0
 31 33  4  0  0  0  0
 11 33  4  0  0  0  0
 33 34  1  0  0  0  0
 10 35  4  0  0  0  0
 35 36  4  0  0  0  0
  8 36  4  0  0  0  0
 36 37  4  0  0  0  0
  2 37  4  0  0  0  0
M  STY  1   1 DAT
M  SAL   1  1  35
M  SDT   1 MRV_IMPLICIT_H                                        
M  SDD   1     0.5304   -0.4125    DR    ALL  0       0  
M  SED   1 IMPL_H1
M  END
> <IC50(uM)>
0.815

> <Outcome>
1.0

> <BindingDB ID>
297788

> <BindingDB MonomerID>
155444

> <BindingDB Ligand Name>
US9006454, I86

> <Curation/DataSource>
US Patent

> <Article DOI>
?

> <PMID>
?

> <Patent Number>
US9006454

> <Authors>
Thunuguntla, SS; Subramanya, H; Kunnam, SR; Sanivaru Vijay, SR; Bingi, C; Kusanur, R; Schwarz, M; Arlt, M

> <Link to Ligand in BindingDB>
http://www.bindingdb.org/bind/chemsearch/marvin/MolStructure.jsp?monomerid=155444

> <Link to Ligand-Target Pair in BindingDB>
http://www.bindingdb.org/jsp/dbsearch/PrimarySearch_ki.jsp?energyterm=kJ/mole&tag=r21&monomerid=155444&enzyme=Dihydroorotate+dehydrogenase&column=ki&startPg=0&Increment=50&submit=Search

> <PubChem CID>
46947751

> <PubChem SID>
253658381

$$$$

  Mrv2115 07222212352D          

 26 29  0  0  0  0            999 V2000
    4.0668    2.3479    0.0000 C   0  0  0  0  0  0  0  0  0  0  0  0
    3.3523    1.9354    0.0000 C   0  0  0  0  0  0  0  0  0  0  0  0
    3.3523    1.1104    0.0000 C   0  0  0  0  0  0  0  0  0  0  0  0
    2.6378    0.6979    0.0000 C   0  0  0  0  0  0  0  0  0  0  0  0
    2.6378   -0.1271    0.0000 C   0  0  0  0  0  0  0  0  0  0  0  0
    1.9233   -0.5396    0.0000 O   0  0  0  0  0  0  0  0  0  0  0  0
    3.3523   -0.5396    0.0000 O   0  0  0  0  0  0  0  0  0  0  0  0
    1.9233    1.1104    0.0000 C   0  0  0  0  0  0  0  0  0  0  0  0
    1.1387    0.8555    0.0000 N   0  0  0  0  0  0  0  0  0  0  0  0
    0.6538    1.5229    0.0000 C   0  0  0  0  0  0  0  0  0  0  0  0
   -0.1712    1.5229    0.0000 C   0  0  0  0  0  0  0  0  0  0  0  0
   -0.5837    0.8085    0.0000 C   0  0  0  0  0  0  0  0  0  0  0  0
   -1.4087    0.8085    0.0000 C   0  0  0  0  0  0  0  0  0  0  0  0
   -1.8212    1.5229    0.0000 C   0  0  0  0  0  0  0  0  0  0  0  0
   -2.6462    1.5229    0.0000 N   0  0  0  0  0  0  0  0  0  0  0  0
   -3.1311    0.8555    0.0000 C   0  0  0  0  0  0  0  0  0  0  0  0
   -2.8762    0.0709    0.0000 C   0  0  0  0  0  0  0  0  0  0  0  0
   -3.9157    1.1104    0.0000 C   0  0  0  0  0  0  0  0  0  0  0  0
   -3.9157    1.9354    0.0000 C   0  0  0  0  0  0  0  0  0  0  0  0
   -3.1311    2.1904    0.0000 C   0  0  0  0  0  0  0  0  0  0  0  0
   -2.8762    2.9750    0.0000 C   0  0  0  0  0  0  0  0  0  0  0  0
   -1.4087    2.2374    0.0000 C   0  0  0  0  0  0  0  0  0  0  0  0
   -0.5837    2.2374    0.0000 C   0  0  0  0  0  0  0  0  0  0  0  0
    1.1387    2.1904    0.0000 N   0  0  0  0  0  0  0  0  0  0  0  0
    1.9233    1.9354    0.0000 C   0  0  0  0  0  0  0  0  0  0  0  0
    2.6378    2.3479    0.0000 C   0  0  0  0  0  0  0  0  0  0  0  0
  1  2  1  0  0  0  0
  2  3  4  0  0  0  0
  3  4  4  0  0  0  0
  4  5  1  0  0  0  0
  5  6  2  0  0  0  0
  5  7  1  0  0  0  0
  4  8  4  0  0  0  0
  8  9  4  0  0  0  0
  9 10  4  0  0  0  0
 10 11  1  0  0  0  0
 11 12  4  0  0  0  0
 12 13  4  0  0  0  0
 13 14  4  0  0  0  0
 14 15  1  0  0  0  0
 15 16  4  0  0  0  0
 16 17  1  0  0  0  0
 16 18  4  0  0  0  0
 18 19  4  0  0  0  0
 19 20  4  0  0  0  0
 15 20  4  0  0  0  0
 20 21  1  0  0  0  0
 14 22  4  0  0  0  0
 22 23  4  0  0  0  0
 11 23  4  0  0  0  0
 10 24  4  0  0  0  0
 24 25  4  0  0  0  0
  8 25  4  0  0  0  0
 25 26  4  0  0  0  0
  2 26  4  0  0  0  0
M  STY  1   1 DAT
M  SAL   1  1   9
M  SDT   1 MRV_IMPLICIT_H                                        
M  SDD   1     0.5304   -0.4125    DR    ALL  0       0  
M  SED   1 IMPL_H1
M  END
> <IC50(uM)>
0.401

> <Outcome>
1.0

> <BindingDB ID>
297823

> <BindingDB MonomerID>
155479

> <BindingDB Ligand Name>
US9006454, I121

> <Curation/DataSource>
US Patent

> <Article DOI>
?

> <PMID>
?

> <Patent Number>
US9006454

> <Authors>
Thunuguntla, SS; Subramanya, H; Kunnam, SR; Sanivaru Vijay, SR; Bingi, C; Kusanur, R; Schwarz, M; Arlt, M

> <Link to Ligand in BindingDB>
http://www.bindingdb.org/bind/chemsearch/marvin/MolStructure.jsp?monomerid=155479

> <Link to Ligand-Target Pair in BindingDB>
http://www.bindingdb.org/jsp/dbsearch/PrimarySearch_ki.jsp?energyterm=kJ/mole&tag=r21&monomerid=155479&enzyme=Dihydroorotate+dehydrogenase&column=ki&startPg=0&Increment=50&submit=Search

> <PubChem CID>
68083734

> <PubChem SID>
253658416

$$$$

  Mrv2115 07222212352D          

 32 36  0  0  0  0            999 V2000
    6.2341   -5.9188    0.0000 C   0  0  0  0  0  0  0  0  0  0  0  0
    5.4271   -5.7473    0.0000 C   0  0  0  0  0  0  0  0  0  0  0  0
    4.8750   -6.3604    0.0000 C   0  0  0  0  0  0  0  0  0  0  0  0
    5.1721   -4.9627    0.0000 C   0  0  0  0  0  0  0  0  0  0  0  0
    4.3652   -4.7911    0.0000 C   0  0  0  0  0  0  0  0  0  0  0  0
    4.1102   -4.0065    0.0000 C   0  0  0  0  0  0  0  0  0  0  0  0
    4.6623   -3.3934    0.0000 C   0  0  0  0  0  0  0  0  0  0  0  0
    4.4073   -2.6088    0.0000 C   0  0  0  0  0  0  0  0  0  0  0  0
    3.6004   -2.4373    0.0000 C   0  0  0  0  0  0  0  0  0  0  0  0
    3.3454   -1.6527    0.0000 C   0  0  0  0  0  0  0  0  0  0  0  0
    2.5384   -1.4811    0.0000 F   0  0  0  0  0  0  0  0  0  0  0  0
    3.8974   -1.0396    0.0000 C   0  0  0  0  0  0  0  0  0  0  0  0
    3.6425   -0.2549    0.0000 N   0  0  0  0  0  0  0  0  0  0  0  0
    4.1274    0.4125    0.0000 N   0  0  0  0  0  0  0  0  0  0  0  0
    3.6425    1.0799    0.0000 N   0  0  0  0  0  0  0  0  0  0  0  0
    2.8579    0.8250    0.0000 C   0  0  0  0  0  0  0  0  0  0  0  0
    2.8579    0.0000    0.0000 C   0  0  0  0  0  0  0  0  0  0  0  0
    2.1434   -0.4125    0.0000 C   0  0  0  0  0  0  0  0  0  0  0  0
    2.1434   -1.2375    0.0000 O   0  0  0  0  0  0  0  0  0  0  0  0
    1.4289   -0.0000    0.0000 C   0  0  0  0  0  0  0  0  0  0  0  0
    0.7145   -0.4125    0.0000 C   0  0  0  0  0  0  0  0  0  0  0  0
   -0.0000    0.0000    0.0000 C   0  0  0  0  0  0  0  0  0  0  0  0
    0.0000    0.8250    0.0000 C   0  0  0  0  0  0  0  0  0  0  0  0
    0.7145    1.2375    0.0000 C   0  0  0  0  0  0  0  0  0  0  0  0
    1.4289    0.8250    0.0000 C   0  0  0  0  0  0  0  0  0  0  0  0
    2.1434    1.2375    0.0000 C   0  0  0  0  0  0  0  0  0  0  0  0
    2.1434    2.0625    0.0000 O   0  0  0  0  0  0  0  0  0  0  0  0
    4.7044   -1.2111    0.0000 C   0  0  0  0  0  0  0  0  0  0  0  0
    5.2564   -0.5980    0.0000 F   0  0  0  0  0  0  0  0  0  0  0  0
    4.9594   -1.9957    0.0000 C   0  0  0  0  0  0  0  0  0  0  0  0
    5.4692   -3.5650    0.0000 C   0  0  0  0  0  0  0  0  0  0  0  0
    5.7242   -4.3496    0.0000 C   0  0  0  0  0  0  0  0  0  0  0  0
  1  2  1  0  0  0  0
  2  3  1  0  0  0  0
  2  4  1  0  0  0  0
  4  5  4  0  0  0  0
  5  6  4  0  0  0  0
  6  7  4  0  0  0  0
  7  8  1  0  0  0  0
  8  9  4  0  0  0  0
  9 10  4  0  0  0  0
 10 11  1  0  0  0  0
 10 12  4  0  0  0  0
 12 13  1  0  0  0  0
 13 14  4  0  0  0  0
 14 15  4  0  0  0  0
 15 16  4  0  0  0  0
 16 17  4  0  0  0  0
 13 17  4  0  0  0  0
 17 18  1  0  0  0  0
 18 19  2  0  0  0  0
 18 20  1  0  0  0  0
 20 21  4  0  0  0  0
 21 22  4  0  0  0  0
 22 23  4  0  0  0  0
 23 24  4  0  0  0  0
 24 25  4  0  0  0  0
 20 25  4  0  0  0  0
 25 26  1  0  0  0  0
 16 26  1  0  0  0  0
 26 27  2  0  0  0  0
 12 28  4  0  0  0  0
 28 29  1  0  0  0  0
 28 30  4  0  0  0  0
  8 30  4  0  0  0  0
  7 31  4  0  0  0  0
 31 32  4  0  0  0  0
  4 32  4  0  0  0  0
M  END
> <IC50(uM)>
1.0

> <Outcome>
1.0

> <BindingDB ID>
51338196

> <BindingDB MonomerID>
50541670

> <BindingDB Ligand Name>
CHEMBL4646336

> <Curation/DataSource>
ChEMBL

> <Article DOI>
10.1021/acs.jmedchem.0c00512

> <PMID>
32496056

> <Patent Number>
?

> <Authors>
Zuo, Z; Liu, X; Qian, X; Zeng, T; Sang, N; Liu, H; Zhou, Y; Tao, L; Zhou, X; Su, N; Yu, Y; Chen, Q; Luo, Y; Zhao, Y

> <Link to Ligand in BindingDB>
http://www.bindingdb.org/bind/chemsearch/marvin/MolStructure.jsp?monomerid=50541670

> <Link to Ligand-Target Pair in BindingDB>
http://www.bindingdb.org/jsp/dbsearch/PrimarySearch_ki.jsp?energyterm=kJ/mole&tag=r21&monomerid=50541670&enzyme=Dihydroorotate+dehydrogenase&column=ki&startPg=0&Increment=50&submit=Search

> <PubChem CID>
156019379

> <PubChem SID>
442143233

$$$$

  Mrv2115 07222212352D          

 22 24  0  0  0  0            999 V2000
   -0.7112   -6.5868    0.0000 C   0  0  0  0  0  0  0  0  0  0  0  0
   -1.0468   -5.8331    0.0000 C   0  0  0  0  0  0  0  0  0  0  0  0
   -0.5619   -5.1657    0.0000 O   0  0  0  0  0  0  0  0  0  0  0  0
   -0.8974   -4.4120    0.0000 C   0  0  0  0  0  0  0  0  0  0  0  0
   -1.7179   -4.3257    0.0000 O   0  0  0  0  0  0  0  0  0  0  0  0
   -0.4125   -3.7445    0.0000 C   0  0  0  0  0  0  0  0  0  0  0  0
   -0.6674   -2.9599    0.0000 S   0  0  0  0  0  0  0  0  0  0  0  0
    0.0000   -2.4750    0.0000 C   0  0  0  0  0  0  0  0  0  0  0  0
    0.0000   -1.6500    0.0000 N   0  0  0  0  0  0  0  0  0  0  0  0
    0.7145   -1.2375    0.0000 C   0  0  0  0  0  0  0  0  0  0  0  0
    0.7145   -0.4125    0.0000 C   0  0  0  0  0  0  0  0  0  0  0  0
    1.4289    0.0000    0.0000 C   0  0  0  0  0  0  0  0  0  0  0  0
    2.1434   -0.4125    0.0000 C   0  0  0  0  0  0  0  0  0  0  0  0
    2.8579    0.0000    0.0000 C   0  0  0  0  0  0  0  0  0  0  0  0
    3.5724   -0.4125    0.0000 C   0  0  0  0  0  0  0  0  0  0  0  0
    3.5724   -1.2375    0.0000 C   0  0  0  0  0  0  0  0  0  0  0  0
    2.8579   -1.6500    0.0000 C   0  0  0  0  0  0  0  0  0  0  0  0
    2.1434   -1.2375    0.0000 C   0  0  0  0  0  0  0  0  0  0  0  0
    1.4289   -1.6500    0.0000 C   0  0  0  0  0  0  0  0  0  0  0  0
    0.6674   -2.9599    0.0000 N   0  0  0  0  0  0  0  0  0  0  0  0
    0.4125   -3.7445    0.0000 C   0  0  0  0  0  0  0  0  0  0  0  0
    0.8974   -4.4120    0.0000 C   0  0  0  0  0  0  0  0  0  0  0  0
  1  2  1  0  0  0  0
  2  3  1  0  0  0  0
  3  4  1  0  0  0  0
  4  5  2  0  0  0  0
  4  6  1  0  0  0  0
  6  7  4  0  0  0  0
  7  8  4  0  0  0  0
  8  9  1  0  0  0  0
  9 10  1  0  0  0  0
 10 11  4  0  0  0  0
 11 12  4  0  0  0  0
 12 13  4  0  0  0  0
 13 14  4  0  0  0  0
 14 15  4  0  0  0  0
 15 16  4  0  0  0  0
 16 17  4  0  0  0  0
 17 18  4  0  0  0  0
 13 18  4  0  0  0  0
 18 19  4  0  0  0  0
 10 19  4  0  0  0  0
  8 20  4  0  0  0  0
 20 21  4  0  0  0  0
  6 21  4  0  0  0  0
 21 22  1  0  0  0  0
M  END
> <IC50(uM)>
0.887

> <Outcome>
1.0

> <BindingDB ID>
50312470

> <BindingDB MonomerID>
50071782

> <BindingDB Ligand Name>
CHEMBL3410581

> <Curation/DataSource>
ChEMBL

> <Article DOI>
10.1021/jm501127s

> <PMID>
25580811

> <Patent Number>
?

> <Authors>
Zhu, J; Han, L; Diao, Y; Ren, X; Xu, M; Xu, L; Li, S; Li, Q; Dong, D; Huang, J; Liu, X; Zhao, Z; Wang, R; Zhu, L; Xu, Y; Qian, X; Li, H

> <Link to Ligand in BindingDB>
http://www.bindingdb.org/bind/chemsearch/marvin/MolStructure.jsp?monomerid=50071782

> <Link to Ligand-Target Pair in BindingDB>
http://www.bindingdb.org/jsp/dbsearch/PrimarySearch_ki.jsp?energyterm=kJ/mole&tag=r21&monomerid=50071782&enzyme=Dihydroorotate+dehydrogenase&column=ki&startPg=0&Increment=50&submit=Search

> <PubChem CID>
118732497

> <PubChem SID>
103965492

$$$$

  Mrv2115 07222212352D          

 35 38  0  0  0  0            999 V2000
   -3.1034    2.1599    0.0000 C   0  0  0  0  0  0  0  0  0  0  0  0
   -2.6909    1.4455    0.0000 C   0  0  0  0  0  0  0  0  0  0  0  0
   -3.1034    0.7310    0.0000 O   0  0  0  0  0  0  0  0  0  0  0  0
   -2.6909    0.0165    0.0000 C   0  0  0  0  0  0  0  0  0  0  0  0
   -1.8659    0.0165    0.0000 C   0  0  0  0  0  0  0  0  0  0  0  0
   -1.4534   -0.6979    0.0000 C   0  0  0  0  0  0  0  0  0  0  0  0
   -0.6284   -0.6979    0.0000 N   0  0  0  0  0  0  0  0  0  0  0  0
   -0.1435   -1.3654    0.0000 N   0  0  0  0  0  0  0  0  0  0  0  0
    0.6411   -1.1104    0.0000 C   0  0  0  0  0  0  0  0  0  0  0  0
    0.6411   -0.2854    0.0000 N   0  0  0  0  0  0  0  0  0  0  0  0
   -0.1435   -0.0305    0.0000 C   0  0  0  0  0  0  0  0  0  0  0  0
   -0.3984    0.7541    0.0000 O   0  0  0  0  0  0  0  0  0  0  0  0
    1.3556    0.1271    0.0000 C   0  0  0  0  0  0  0  0  0  0  0  0
    2.0701   -0.2854    0.0000 C   0  0  0  0  0  0  0  0  0  0  0  0
    2.0701   -1.1104    0.0000 C   0  0  0  0  0  0  0  0  0  0  0  0
    1.3556   -1.5229    0.0000 S   0  0  0  0  0  0  0  0  0  0  0  0
   -1.8659   -1.4124    0.0000 C   0  0  0  0  0  0  0  0  0  0  0  0
   -1.4534   -2.1269    0.0000 F   0  0  0  0  0  0  0  0  0  0  0  0
   -2.6909   -1.4124    0.0000 C   0  0  0  0  0  0  0  0  0  0  0  0
   -3.1034   -0.6979    0.0000 C   0  0  0  0  0  0  0  0  0  0  0  0
   -3.9284   -0.6979    0.0000 C   0  0  0  0  0  0  0  0  0  0  0  0
   -4.3409    0.0165    0.0000 O   0  0  0  0  0  0  0  0  0  0  0  0
   -4.3409   -1.4124    0.0000 N   0  0  0  0  0  0  0  0  0  0  0  0
   -5.1659   -1.4124    0.0000 C   0  0  0  0  0  0  0  0  0  0  0  0
   -5.5784   -2.1269    0.0000 C   0  0  0  0  0  0  0  0  0  0  0  0
   -5.1659   -2.8414    0.0000 F   0  0  0  0  0  0  0  0  0  0  0  0
   -6.4034   -2.1269    0.0000 C   0  0  0  0  0  0  0  0  0  0  0  0
   -6.8159   -1.4124    0.0000 C   0  0  0  0  0  0  0  0  0  0  0  0
   -6.4034   -0.6979    0.0000 C   0  0  0  0  0  0  0  0  0  0  0  0
   -5.5784   -0.6979    0.0000 C   0  0  0  0  0  0  0  0  0  0  0  0
   -5.1659    0.0165    0.0000 F   0  0  0  0  0  0  0  0  0  0  0  0
   -1.8659    1.4455    0.0000 C   0  0  0  0  0  0  0  0  0  0  0  0
   -1.8659    0.6205    0.0000 F   0  0  0  0  0  0  0  0  0  0  0  0
   -1.8659    2.2705    0.0000 F   0  0  0  0  0  0  0  0  0  0  0  0
   -1.0409    1.4455    0.0000 F   0  0  0  0  0  0  0  0  0  0  0  0
  1  2  1  0  0  0  0
  2  3  1  0  0  0  0
  3  4  1  0  0  0  0
  4  5  4  0  0  0  0
  5  6  4  0  0  0  0
  6  7  1  0  0  0  0
  7  8  4  0  0  0  0
  8  9  4  0  0  0  0
  9 10  4  0  0  0  0
 10 11  4  0  0  0  0
  7 11  4  0  0  0  0
 11 12  2  0  0  0  0
 10 13  1  0  0  0  0
 13 14  1  0  0  0  0
 14 15  1  0  0  0  0
 15 16  1  0  0  0  0
  9 16  1  0  0  0  0
  6 17  4  0  0  0  0
 17 18  1  0  0  0  0
 17 19  4  0  0  0  0
 19 20  4  0  0  0  0
  4 20  4  0  0  0  0
 20 21  1  0  0  0  0
 21 22  2  0  0  0  0
 21 23  1  0  0  0  0
 23 24  1  0  0  0  0
 24 25  4  0  0  0  0
 25 26  1  0  0  0  0
 25 27  4  0  0  0  0
 27 28  4  0  0  0  0
 28 29  4  0  0  0  0
 29 30  4  0  0  0  0
 24 30  4  0  0  0  0
 30 31  1  0  0  0  0
  2 32  1  0  0  0  0
 32 33  1  0  0  0  0
 32 34  1  0  0  0  0
 32 35  1  0  0  0  0
M  END
> <IC50(uM)>
0.16

> <Outcome>
1.0

> <BindingDB ID>
1020653

> <BindingDB MonomerID>
490582

> <BindingDB Ligand Name>
N-(2,6-difluorophenyl)-5-fluoro-4-(3-oxo-6,7-dihydro-5H-[1,2,4]triazolo[3,4-b][1,3]thiazin-2(3H)-yl)-2-{[(2S)-1,1,1-trifluoropropan-2-yl]oxy}benzamide::US10968216, Example 250

> <Curation/DataSource>
US Patent

> <Article DOI>
?

> <PMID>
?

> <Patent Number>
US10968216

> <Authors>
Gradl, SN; Nguyen, D; Eis, K; Gunther, J; Stellfeld, T; Janzer, A; Christian, S; Mueller, T; Sheikh, SE; Zhou, HJ; Zhao, C; Sykes, DB; Ferrara, SJ; Liu, K; Herbert, SA; Merz, C; Niehues, M; Nising, CF; Schafer, M; Zimmermann, K; Knablein, J; Thede, K; Faupel, T

> <Link to Ligand in BindingDB>
http://www.bindingdb.org/bind/chemsearch/marvin/MolStructure.jsp?monomerid=490582

> <Link to Ligand-Target Pair in BindingDB>
http://www.bindingdb.org/jsp/dbsearch/PrimarySearch_ki.jsp?energyterm=kJ/mole&tag=r21&monomerid=490582&enzyme=Dihydroorotate+dehydrogenase&column=ki&startPg=0&Increment=50&submit=Search

> <PubChem CID>
134474448

> <PubChem SID>
447117308

$$$$

  Mrv2115 07222212352D          

 34 38  0  0  0  0            999 V2000
    4.0668    2.3479    0.0000 C   0  0  0  0  0  0  0  0  0  0  0  0
    3.3523    1.9354    0.0000 C   0  0  0  0  0  0  0  0  0  0  0  0
    3.3523    1.1104    0.0000 C   0  0  0  0  0  0  0  0  0  0  0  0
    2.6378    0.6979    0.0000 C   0  0  0  0  0  0  0  0  0  0  0  0
    2.6378   -0.1271    0.0000 C   0  0  0  0  0  0  0  0  0  0  0  0
    1.9233   -0.5396    0.0000 O   0  0  0  0  0  0  0  0  0  0  0  0
    3.3523   -0.5396    0.0000 O   0  0  0  0  0  0  0  0  0  0  0  0
    1.9233    1.1104    0.0000 C   0  0  0  0  0  0  0  0  0  0  0  0
    1.1387    0.8555    0.0000 N   0  0  0  0  0  0  0  0  0  0  0  0
    0.6538    1.5229    0.0000 C   0  0  0  0  0  0  0  0  0  0  0  0
   -0.1712    1.5229    0.0000 C   0  0  0  0  0  0  0  0  0  0  0  0
   -0.5837    0.8085    0.0000 C   0  0  0  0  0  0  0  0  0  0  0  0
   -1.4087    0.8085    0.0000 C   0  0  0  0  0  0  0  0  0  0  0  0
   -1.8212    1.5229    0.0000 C   0  0  0  0  0  0  0  0  0  0  0  0
   -2.6462    1.5229    0.0000 C   0  0  0  0  0  0  0  0  0  0  0  0
   -3.0587    0.8085    0.0000 C   0  0  0  0  0  0  0  0  0  0  0  0
   -3.8837    0.8085    0.0000 C   0  0  0  0  0  0  0  0  0  0  0  0
   -4.2962    1.5229    0.0000 C   0  0  0  0  0  0  0  0  0  0  0  0
   -5.1212    1.5229    0.0000 O   0  0  0  0  0  0  0  0  0  0  0  0
   -5.5337    2.2374    0.0000 C   0  0  0  0  0  0  0  0  0  0  0  0
   -6.3587    2.2374    0.0000 C   0  0  0  0  0  0  0  0  0  0  0  0
   -6.7712    2.9519    0.0000 C   0  0  0  0  0  0  0  0  0  0  0  0
   -6.3587    3.6664    0.0000 C   0  0  0  0  0  0  0  0  0  0  0  0
   -5.5337    3.6664    0.0000 C   0  0  0  0  0  0  0  0  0  0  0  0
   -5.1212    2.9519    0.0000 C   0  0  0  0  0  0  0  0  0  0  0  0
   -4.2962    2.9519    0.0000 C   0  0  0  0  0  0  0  0  0  0  0  0
   -3.8837    3.6664    0.0000 O   0  0  0  0  0  0  0  0  0  0  0  0
   -3.8837    2.2374    0.0000 C   0  0  0  0  0  0  0  0  0  0  0  0
   -3.0587    2.2374    0.0000 C   0  0  0  0  0  0  0  0  0  0  0  0
   -1.4087    2.2374    0.0000 C   0  0  0  0  0  0  0  0  0  0  0  0
   -0.5837    2.2374    0.0000 C   0  0  0  0  0  0  0  0  0  0  0  0
    1.1387    2.1904    0.0000 N   0  0  0  0  0  0  0  0  0  0  0  0
    1.9233    1.9354    0.0000 C   0  0  0  0  0  0  0  0  0  0  0  0
    2.6378    2.3479    0.0000 C   0  0  0  0  0  0  0  0  0  0  0  0
  1  2  1  0  0  0  0
  2  3  4  0  0  0  0
  3  4  4  0  0  0  0
  4  5  1  0  0  0  0
  5  6  2  0  0  0  0
  5  7  1  0  0  0  0
  4  8  4  0  0  0  0
  8  9  4  0  0  0  0
  9 10  4  0  0  0  0
 10 11  1  0  0  0  0
 11 12  4  0  0  0  0
 12 13  4  0  0  0  0
 13 14  4  0  0  0  0
 14 15  1  0  0  0  0
 15 16  4  0  0  0  0
 16 17  4  0  0  0  0
 17 18  4  0  0  0  0
 18 19  1  0  0  0  0
 19 20  1  0  0  0  0
 20 21  4  0  0  0  0
 21 22  4  0  0  0  0
 22 23  4  0  0  0  0
 23 24  4  0  0  0  0
 24 25  4  0  0  0  0
 20 25  4  0  0  0  0
 25 26  1  0  0  0  0
 26 27  2  0  0  0  0
 18 28  4  0  0  0  0
 28 29  4  0  0  0  0
 15 29  4  0  0  0  0
 14 30  4  0  0  0  0
 30 31  4  0  0  0  0
 11 31  4  0  0  0  0
 10 32  4  0  0  0  0
 32 33  4  0  0  0  0
  8 33  4  0  0  0  0
 33 34  4  0  0  0  0
  2 34  4  0  0  0  0
M  STY  1   1 DAT
M  SAL   1  1  32
M  SDT   1 MRV_IMPLICIT_H                                        
M  SDD   1     0.5304   -0.4125    DR    ALL  0       0  
M  SED   1 IMPL_H1
M  END
> <IC50(uM)>
1.05

> <Outcome>
0.0

> <BindingDB ID>
297844

> <BindingDB MonomerID>
155500

> <BindingDB Ligand Name>
US9006454, I142

> <Curation/DataSource>
US Patent

> <Article DOI>
?

> <PMID>
?

> <Patent Number>
US9006454

> <Authors>
Thunuguntla, SS; Subramanya, H; Kunnam, SR; Sanivaru Vijay, SR; Bingi, C; Kusanur, R; Schwarz, M; Arlt, M

> <Link to Ligand in BindingDB>
http://www.bindingdb.org/bind/chemsearch/marvin/MolStructure.jsp?monomerid=155500

> <Link to Ligand-Target Pair in BindingDB>
http://www.bindingdb.org/jsp/dbsearch/PrimarySearch_ki.jsp?energyterm=kJ/mole&tag=r21&monomerid=155500&enzyme=Dihydroorotate+dehydrogenase&column=ki&startPg=0&Increment=50&submit=Search

> <PubChem CID>
58073871

> <PubChem SID>
253658437

$$$$

  Mrv2115 07222212352D          

 30 31  0  0  0  0            999 V2000
   -2.1434   -1.2375    0.0000 C   0  0  0  0  0  0  0  0  0  0  0  0
   -1.4289   -1.6500    0.0000 C   0  0  0  0  0  0  0  0  0  0  0  0
   -0.7145   -1.2375    0.0000 C   0  0  0  0  0  0  0  0  0  0  0  0
    0.0000   -1.6500    0.0000 C   0  0  0  0  0  0  0  0  0  0  0  0
    0.0000   -2.4750    0.0000 C   0  0  0  0  0  0  0  0  0  0  0  0
    0.7145   -1.2375    0.0000 O   0  0  0  0  0  0  0  0  0  0  0  0
    0.7145   -0.4125    0.0000 C   0  0  0  0  0  0  0  0  0  0  0  0
    0.0000    0.0000    0.0000 C   0  0  0  0  0  0  0  0  0  0  0  0
    0.0000    0.8250    0.0000 C   0  0  0  0  0  0  0  0  0  0  0  0
   -0.7145    1.2375    0.0000 N   0  0  0  0  0  0  0  0  0  0  0  0
   -1.4681    0.9019    0.0000 N   0  0  0  0  0  0  0  0  0  0  0  0
   -2.0202    1.5150    0.0000 C   0  0  0  0  0  0  0  0  0  0  0  0
   -2.8407    1.4288    0.0000 C   0  0  0  0  0  0  0  0  0  0  0  0
   -3.1762    0.6751    0.0000 C   0  0  0  0  0  0  0  0  0  0  0  0
   -1.6077    2.2295    0.0000 N   0  0  0  0  0  0  0  0  0  0  0  0
   -1.9432    2.9832    0.0000 C   0  0  0  0  0  0  0  0  0  0  0  0
   -0.8007    2.0580    0.0000 C   0  0  0  0  0  0  0  0  0  0  0  0
   -0.1876    2.6100    0.0000 O   0  0  0  0  0  0  0  0  0  0  0  0
    0.7145    1.2375    0.0000 C   0  0  0  0  0  0  0  0  0  0  0  0
    0.7145    2.0625    0.0000 F   0  0  0  0  0  0  0  0  0  0  0  0
    1.4289    0.8250    0.0000 C   0  0  0  0  0  0  0  0  0  0  0  0
    1.4289    0.0000    0.0000 C   0  0  0  0  0  0  0  0  0  0  0  0
    2.1434   -0.4125    0.0000 C   0  0  0  0  0  0  0  0  0  0  0  0
    2.1434   -1.2375    0.0000 O   0  0  0  0  0  0  0  0  0  0  0  0
    2.8579    0.0000    0.0000 N   0  0  0  0  0  0  0  0  0  0  0  0
    2.8579    0.8250    0.0000 C   0  0  0  0  0  0  0  0  0  0  0  0
    3.5724    1.2375    0.0000 C   0  0  0  0  0  0  0  0  0  0  0  0
    4.2868    1.6500    0.0000 C   0  0  0  0  0  0  0  0  0  0  0  0
    3.9849    0.5230    0.0000 C   0  0  0  0  0  0  0  0  0  0  0  0
    3.1599    1.9520    0.0000 C   0  0  0  0  0  0  0  0  0  0  0  0
  1  2  1  0  0  0  0
  2  3  1  0  0  0  0
  3  4  1  0  0  0  0
  4  5  1  0  0  0  0
  4  6  1  0  0  0  0
  6  7  1  0  0  0  0
  7  8  4  0  0  0  0
  8  9  4  0  0  0  0
  9 10  1  0  0  0  0
 10 11  4  0  0  0  0
 11 12  4  0  0  0  0
 12 13  1  0  0  0  0
 13 14  1  0  0  0  0
 12 15  4  0  0  0  0
 15 16  1  0  0  0  0
 15 17  4  0  0  0  0
 10 17  4  0  0  0  0
 17 18  2  0  0  0  0
  9 19  4  0  0  0  0
 19 20  1  0  0  0  0
 19 21  4  0  0  0  0
 21 22  4  0  0  0  0
  7 22  4  0  0  0  0
 22 23  1  0  0  0  0
 23 24  2  0  0  0  0
 23 25  1  0  0  0  0
 25 26  1  0  0  0  0
 26 27  1  0  0  0  0
 27 28  1  0  0  0  0
 27 29  1  0  0  0  0
 27 30  1  0  0  0  0
M  END
> <IC50(uM)>
0.213

> <Outcome>
1.0

> <BindingDB ID>
972481; 1098635

> <BindingDB MonomerID>
470367

> <BindingDB Ligand Name>
N-(2,2-dimethylpropyl)-4-(3-ethyl-4-methyl-5-oxo-4,5-dihydro-1H-1,2,4-triazol-1-yl)-5-fluoro-2-[(2S)-pentan-2-yloxy]benzamide::US10815215, Example 27; N-(2,2-dimethylpropyl)-4-(3-ethyl-4-methyl-5-oxo-4,5-dihydro-1H-1,2,4-triazol-1-yl)-5-fluoro-2-[(2S)-pentan-2-yloxy]benzamide::US10815215, Example 27::US11130745, Example 27

> <Curation/DataSource>
US Patent

> <Article DOI>
?

> <PMID>
?

> <Patent Number>
US10815215; US11130745

> <Authors>
Gradl, SN; Nguyen, D; Eis, K; Gunther, J; Stellfeld, T; Janzer, A; Christian, S; Muller, T; Sheikh, SE; Zhou, HJ; Zhao, C; Sykes, DB; Ferrara, SJ; Liu, K; Krober, M; Merz, C; Niehues, M; Schafer, M; Zimmermann, K; Nising, CF; Gradl, SN; Nguyen, D; Eis, K; Gunther, J; Stellfeld, T; Janzer, A; Christian, S; Muller, T; Sheikh, SE; Sykes, DB; Ferrara, SJ; Krober, M; Merz, C; Niehues, M; Schafer, M; Zimmermann, K; Nising, CF

> <Link to Ligand in BindingDB>
http://www.bindingdb.org/bind/chemsearch/marvin/MolStructure.jsp?monomerid=470367

> <Link to Ligand-Target Pair in BindingDB>
http://www.bindingdb.org/jsp/dbsearch/PrimarySearch_ki.jsp?energyterm=kJ/mole&tag=r21&monomerid=470367&enzyme=Dihydroorotate+dehydrogenase&column=ki&startPg=0&Increment=50&submit=Search

> <PubChem CID>
134470048

> <PubChem SID>
441609544

$$$$

  Mrv2115 07222212352D          

 26 29  0  0  0  0            999 V2000
   -0.7145    2.0625    0.0000 F   0  0  0  0  0  0  0  0  0  0  0  0
    0.0000    2.4750    0.0000 C   0  0  0  0  0  0  0  0  0  0  0  0
    0.0000    3.3000    0.0000 C   0  0  0  0  0  0  0  0  0  0  0  0
    0.7145    3.7125    0.0000 C   0  0  0  0  0  0  0  0  0  0  0  0
    1.4289    3.3000    0.0000 C   0  0  0  0  0  0  0  0  0  0  0  0
    1.4289    2.4750    0.0000 C   0  0  0  0  0  0  0  0  0  0  0  0
    0.7145    2.0625    0.0000 C   0  0  0  0  0  0  0  0  0  0  0  0
    0.7145    1.2375    0.0000 C   0  0  0  0  0  0  0  0  0  0  0  0
    1.4289    0.8250    0.0000 C   0  0  0  0  0  0  0  0  0  0  0  0
    2.1434    1.2375    0.0000 F   0  0  0  0  0  0  0  0  0  0  0  0
    1.4289   -0.0000    0.0000 C   0  0  0  0  0  0  0  0  0  0  0  0
    0.7145   -0.4125    0.0000 C   0  0  0  0  0  0  0  0  0  0  0  0
    0.7145   -1.2375    0.0000 N   0  0  0  0  0  0  0  0  0  0  0  0
    1.3819   -1.7224    0.0000 C   0  0  0  0  0  0  0  0  0  0  0  0
    1.1270   -2.5070    0.0000 C   0  0  0  0  0  0  0  0  0  0  0  0
    1.6119   -3.1745    0.0000 C   0  0  0  0  0  0  0  0  0  0  0  0
    2.4324   -3.0882    0.0000 C   0  0  0  0  0  0  0  0  0  0  0  0
    2.9173   -3.7557    0.0000 C   0  0  0  0  0  0  0  0  0  0  0  0
    2.5817   -4.5094    0.0000 C   0  0  0  0  0  0  0  0  0  0  0  0
    1.7613   -4.5956    0.0000 C   0  0  0  0  0  0  0  0  0  0  0  0
    1.2763   -3.9282    0.0000 C   0  0  0  0  0  0  0  0  0  0  0  0
    0.3020   -2.5070    0.0000 N   0  0  0  0  0  0  0  0  0  0  0  0
    0.0470   -1.7224    0.0000 N   0  0  0  0  0  0  0  0  0  0  0  0
    0.0000    0.0000    0.0000 C   0  0  0  0  0  0  0  0  0  0  0  0
    0.0000    0.8250    0.0000 C   0  0  0  0  0  0  0  0  0  0  0  0
   -0.7145    1.2375    0.0000 F   0  0  0  0  0  0  0  0  0  0  0  0
  1  2  1  0  0  0  0
  2  3  4  0  0  0  0
  3  4  4  0  0  0  0
  4  5  4  0  0  0  0
  5  6  4  0  0  0  0
  6  7  4  0  0  0  0
  2  7  4  0  0  0  0
  7  8  1  0  0  0  0
  8  9  4  0  0  0  0
  9 10  1  0  0  0  0
  9 11  4  0  0  0  0
 11 12  4  0  0  0  0
 12 13  1  0  0  0  0
 13 14  4  0  0  0  0
 14 15  4  0  0  0  0
 15 16  1  0  0  0  0
 16 17  4  0  0  0  0
 17 18  4  0  0  0  0
 18 19  4  0  0  0  0
 19 20  4  0  0  0  0
 20 21  4  0  0  0  0
 16 21  4  0  0  0  0
 15 22  4  0  0  0  0
 22 23  4  0  0  0  0
 13 23  4  0  0  0  0
 12 24  4  0  0  0  0
 24 25  4  0  0  0  0
  8 25  4  0  0  0  0
 25 26  1  0  0  0  0
M  END
> <IC50(uM)>
1.0

> <Outcome>
1.0

> <BindingDB ID>
51338218

> <BindingDB MonomerID>
50541692

> <BindingDB Ligand Name>
CHEMBL4648036

> <Curation/DataSource>
ChEMBL

> <Article DOI>
10.1021/acs.jmedchem.0c00512

> <PMID>
32496056

> <Patent Number>
?

> <Authors>
Zuo, Z; Liu, X; Qian, X; Zeng, T; Sang, N; Liu, H; Zhou, Y; Tao, L; Zhou, X; Su, N; Yu, Y; Chen, Q; Luo, Y; Zhao, Y

> <Link to Ligand in BindingDB>
http://www.bindingdb.org/bind/chemsearch/marvin/MolStructure.jsp?monomerid=50541692

> <Link to Ligand-Target Pair in BindingDB>
http://www.bindingdb.org/jsp/dbsearch/PrimarySearch_ki.jsp?energyterm=kJ/mole&tag=r21&monomerid=50541692&enzyme=Dihydroorotate+dehydrogenase&column=ki&startPg=0&Increment=50&submit=Search

> <PubChem CID>
156021609

> <PubChem SID>
442143255

$$$$

  Mrv2115 07222212352D          

 29 32  0  0  0  0            999 V2000
    4.0668    2.3479    0.0000 C   0  0  0  0  0  0  0  0  0  0  0  0
    3.3523    1.9354    0.0000 C   0  0  0  0  0  0  0  0  0  0  0  0
    3.3523    1.1104    0.0000 C   0  0  0  0  0  0  0  0  0  0  0  0
    2.6378    0.6979    0.0000 C   0  0  0  0  0  0  0  0  0  0  0  0
    2.6378   -0.1271    0.0000 C   0  0  0  0  0  0  0  0  0  0  0  0
    1.9233   -0.5396    0.0000 O   0  0  0  0  0  0  0  0  0  0  0  0
    3.3523   -0.5396    0.0000 O   0  0  0  0  0  0  0  0  0  0  0  0
    1.9233    1.1104    0.0000 C   0  0  0  0  0  0  0  0  0  0  0  0
    1.1387    0.8555    0.0000 N   0  0  0  0  0  0  0  0  0  0  0  0
    0.6538    1.5229    0.0000 C   0  0  0  0  0  0  0  0  0  0  0  0
   -0.1712    1.5229    0.0000 C   0  0  0  0  0  0  0  0  0  0  0  0
   -0.5837    0.8085    0.0000 C   0  0  0  0  0  0  0  0  0  0  0  0
   -0.1712    0.0940    0.0000 F   0  0  0  0  0  0  0  0  0  0  0  0
   -1.4087    0.8085    0.0000 C   0  0  0  0  0  0  0  0  0  0  0  0
   -1.8212    0.0940    0.0000 F   0  0  0  0  0  0  0  0  0  0  0  0
   -1.8212    1.5229    0.0000 C   0  0  0  0  0  0  0  0  0  0  0  0
   -2.6462    1.5229    0.0000 C   0  0  0  0  0  0  0  0  0  0  0  0
   -3.0587    0.8085    0.0000 C   0  0  0  0  0  0  0  0  0  0  0  0
   -3.8837    0.8085    0.0000 C   0  0  0  0  0  0  0  0  0  0  0  0
   -4.2962    1.5229    0.0000 C   0  0  0  0  0  0  0  0  0  0  0  0
   -3.8837    2.2374    0.0000 C   0  0  0  0  0  0  0  0  0  0  0  0
   -3.0587    2.2374    0.0000 C   0  0  0  0  0  0  0  0  0  0  0  0
   -1.4087    2.2374    0.0000 C   0  0  0  0  0  0  0  0  0  0  0  0
   -1.8212    2.9519    0.0000 F   0  0  0  0  0  0  0  0  0  0  0  0
   -0.5837    2.2374    0.0000 C   0  0  0  0  0  0  0  0  0  0  0  0
   -0.1712    2.9519    0.0000 F   0  0  0  0  0  0  0  0  0  0  0  0
    1.1387    2.1904    0.0000 N   0  0  0  0  0  0  0  0  0  0  0  0
    1.9233    1.9354    0.0000 C   0  0  0  0  0  0  0  0  0  0  0  0
    2.6378    2.3479    0.0000 C   0  0  0  0  0  0  0  0  0  0  0  0
  1  2  1  0  0  0  0
  2  3  4  0  0  0  0
  3  4  4  0  0  0  0
  4  5  1  0  0  0  0
  5  6  2  0  0  0  0
  5  7  1  0  0  0  0
  4  8  4  0  0  0  0
  8  9  4  0  0  0  0
  9 10  4  0  0  0  0
 10 11  1  0  0  0  0
 11 12  4  0  0  0  0
 12 13  1  0  0  0  0
 12 14  4  0  0  0  0
 14 15  1  0  0  0  0
 14 16  4  0  0  0  0
 16 17  1  0  0  0  0
 17 18  4  0  0  0  0
 18 19  4  0  0  0  0
 19 20  4  0  0  0  0
 20 21  4  0  0  0  0
 21 22  4  0  0  0  0
 17 22  4  0  0  0  0
 16 23  4  0  0  0  0
 23 24  1  0  0  0  0
 23 25  4  0  0  0  0
 11 25  4  0  0  0  0
 25 26  1  0  0  0  0
 10 27  4  0  0  0  0
 27 28  4  0  0  0  0
  8 28  4  0  0  0  0
 28 29  4  0  0  0  0
  2 29  4  0  0  0  0
M  STY  1   1 DAT
M  SAL   1  1  27
M  SDT   1 MRV_IMPLICIT_H                                        
M  SDD   1     0.5304   -0.4125    DR    ALL  0       0  
M  SED   1 IMPL_H1
M  END
> <IC50(uM)>
0.0068

> <Outcome>
1.0

> <BindingDB ID>
297765

> <BindingDB MonomerID>
155421

> <BindingDB Ligand Name>
US9006454, I41

> <Curation/DataSource>
US Patent

> <Article DOI>
?

> <PMID>
?

> <Patent Number>
US9006454

> <Authors>
Thunuguntla, SS; Subramanya, H; Kunnam, SR; Sanivaru Vijay, SR; Bingi, C; Kusanur, R; Schwarz, M; Arlt, M

> <Link to Ligand in BindingDB>
http://www.bindingdb.org/bind/chemsearch/marvin/MolStructure.jsp?monomerid=155421

> <Link to Ligand-Target Pair in BindingDB>
http://www.bindingdb.org/jsp/dbsearch/PrimarySearch_ki.jsp?energyterm=kJ/mole&tag=r21&monomerid=155421&enzyme=Dihydroorotate+dehydrogenase&column=ki&startPg=0&Increment=50&submit=Search

> <PubChem CID>
46946577

> <PubChem SID>
253658358

$$$$

  Mrv2115 07222212352D          

 35 38  0  0  0  0            999 V2000
    0.5269   -3.0225    0.0000 C   0  0  0  0  0  0  0  0  0  0  0  0
   -0.0862   -2.4705    0.0000 C   0  0  0  0  0  0  0  0  0  0  0  0
   -0.8932   -2.6420    0.0000 N   0  0  0  0  0  0  0  0  0  0  0  0
   -1.3057   -1.9275    0.0000 N   0  0  0  0  0  0  0  0  0  0  0  0
   -0.7537   -1.3144    0.0000 C   0  0  0  0  0  0  0  0  0  0  0  0
   -0.9252   -0.5075    0.0000 C   0  0  0  0  0  0  0  0  0  0  0  0
   -1.0967    0.2995    0.0000 F   0  0  0  0  0  0  0  0  0  0  0  0
   -1.7322   -0.6790    0.0000 F   0  0  0  0  0  0  0  0  0  0  0  0
   -0.1182   -0.3359    0.0000 F   0  0  0  0  0  0  0  0  0  0  0  0
    0.0000   -1.6500    0.0000 C   0  0  0  0  0  0  0  0  0  0  0  0
    0.7145   -1.2375    0.0000 C   0  0  0  0  0  0  0  0  0  0  0  0
    0.7145   -0.4125    0.0000 C   0  0  0  0  0  0  0  0  0  0  0  0
    1.4289    0.0000    0.0000 C   0  0  0  0  0  0  0  0  0  0  0  0
    1.4289    0.8250    0.0000 C   0  0  0  0  0  0  0  0  0  0  0  0
    2.1434    1.2375    0.0000 C   0  0  0  0  0  0  0  0  0  0  0  0
    0.7145    1.2375    0.0000 C   0  0  0  0  0  0  0  0  0  0  0  0
    2.1434   -0.4125    0.0000 C   0  0  0  0  0  0  0  0  0  0  0  0
    2.8579    0.0000    0.0000 C   0  0  0  0  0  0  0  0  0  0  0  0
    3.5724   -0.4125    0.0000 C   0  0  0  0  0  0  0  0  0  0  0  0
    4.2868   -0.0000    0.0000 C   0  0  0  0  0  0  0  0  0  0  0  0
    4.3731    0.8205    0.0000 N   0  0  0  0  0  0  0  0  0  0  0  0
    5.1800    0.9920    0.0000 C   0  0  0  0  0  0  0  0  0  0  0  0
    5.5156    1.7457    0.0000 C   0  0  0  0  0  0  0  0  0  0  0  0
    5.8511    2.4994    0.0000 C   0  0  0  0  0  0  0  0  0  0  0  0
    6.2693    1.4101    0.0000 C   0  0  0  0  0  0  0  0  0  0  0  0
    4.7619    2.0812    0.0000 O   0  0  0  0  0  0  0  0  0  0  0  0
    5.5925    0.2775    0.0000 N   0  0  0  0  0  0  0  0  0  0  0  0
    6.4130    0.1913    0.0000 C   0  0  0  0  0  0  0  0  0  0  0  0
    5.0405   -0.3356    0.0000 N   0  0  0  0  0  0  0  0  0  0  0  0
    3.5724   -1.2375    0.0000 C   0  0  0  0  0  0  0  0  0  0  0  0
    4.2868   -1.6500    0.0000 F   0  0  0  0  0  0  0  0  0  0  0  0
    2.8579   -1.6500    0.0000 C   0  0  0  0  0  0  0  0  0  0  0  0
    2.1434   -1.2375    0.0000 N   0  0  0  0  0  0  0  0  0  0  0  0
    1.4289   -1.6500    0.0000 C   0  0  0  0  0  0  0  0  0  0  0  0
    1.4289   -2.4750    0.0000 O   0  0  0  0  0  0  0  0  0  0  0  0
  1  2  1  0  0  0  0
  2  3  4  0  0  0  0
  3  4  4  0  0  0  0
  4  5  4  0  0  0  0
  5  6  1  0  0  0  0
  6  7  1  0  0  0  0
  6  8  1  0  0  0  0
  6  9  1  0  0  0  0
  5 10  4  0  0  0  0
  2 10  4  0  0  0  0
 10 11  1  0  0  0  0
 11 12  4  0  0  0  0
 12 13  4  0  0  0  0
 13 14  1  0  0  0  0
 14 15  1  0  0  0  0
 14 16  1  0  0  0  0
 13 17  4  0  0  0  0
 17 18  4  0  0  0  0
 18 19  4  0  0  0  0
 19 20  1  0  0  0  0
 20 21  4  0  0  0  0
 21 22  4  0  0  0  0
 22 23  1  0  0  0  0
 23 24  1  0  0  0  0
 23 25  1  0  0  0  0
 23 26  1  0  0  0  0
 22 27  4  0  0  0  0
 27 28  1  0  0  0  0
 27 29  4  0  0  0  0
 20 29  4  0  0  0  0
 19 30  4  0  0  0  0
 30 31  1  0  0  0  0
 30 32  4  0  0  0  0
 32 33  4  0  0  0  0
 17 33  4  0  0  0  0
 33 34  4  0  0  0  0
 11 34  4  0  0  0  0
 34 35  2  0  0  0  0
M  STY  1   1 DAT
M  SAL   1  1   4
M  SDT   1 MRV_IMPLICIT_H                                        
M  SDD   1     0.5304   -0.4125    DR    ALL  0       0  
M  SED   1 IMPL_H1
M  END
> <IC50(uM)>
0.0025099999999999996

> <Outcome>
1.0

> <BindingDB ID>
1121403

> <BindingDB MonomerID>
530469

> <BindingDB Ligand Name>
7-Fluoro-8-(5-(2-hydroxypropan-2-yl)-1-methyl-1H-1,2,4-triazol-3-yl)-1-isopropyl-3-(3-methyl-5-(trifluoromethyl)-1H-pyrazol-4-yl)-4H-quinolizin-4-one.::WO2022070071, Example 7

> <Curation/DataSource>
Curated from the literature by BindingDB

> <Article DOI>
?

> <PMID>
WO2022070071

> <Patent Number>
?

> <Authors>
Lindsey, D; Scott, K

> <Link to Ligand in BindingDB>
http://www.bindingdb.org/bind/chemsearch/marvin/MolStructure.jsp?monomerid=530469

> <Link to Ligand-Target Pair in BindingDB>
http://www.bindingdb.org/jsp/dbsearch/PrimarySearch_ki.jsp?energyterm=kJ/mole&tag=r21&monomerid=530469&enzyme=Dihydroorotate+dehydrogenase&column=ki&startPg=0&Increment=50&submit=Search

> <PubChem CID>
?

> <PubChem SID>
?

$$$$

  Mrv2115 07222212352D          

 16 17  0  0  0  0            999 V2000
    1.4289    0.0000    0.0000 O   0  0  0  0  0  0  0  0  0  0  0  0
    2.1434   -0.4125    0.0000 C   0  0  0  0  0  0  0  0  0  0  0  0
    2.8579    0.0000    0.0000 O   0  0  0  0  0  0  0  0  0  0  0  0
    2.1434   -1.2375    0.0000 C   0  0  0  0  0  0  0  0  0  0  0  0
    1.4289   -1.6500    0.0000 C   0  0  0  0  0  0  0  0  0  0  0  0
    1.4289   -2.4750    0.0000 C   0  0  0  0  0  0  0  0  0  0  0  0
    2.1434   -2.8875    0.0000 C   0  0  0  0  0  0  0  0  0  0  0  0
    2.8579   -2.4750    0.0000 N   0  0  0  0  0  0  0  0  0  0  0  0
    2.8579   -1.6500    0.0000 C   0  0  0  0  0  0  0  0  0  0  0  0
    3.5724   -1.2375    0.0000 N   0  0  0  0  0  0  0  0  0  0  0  0
    4.2868   -1.6500    0.0000 C   0  0  0  0  0  0  0  0  0  0  0  0
    5.0013   -1.2375    0.0000 C   0  0  0  0  0  0  0  0  0  0  0  0
    5.7158   -1.6500    0.0000 C   0  0  0  0  0  0  0  0  0  0  0  0
    5.7158   -2.4750    0.0000 C   0  0  0  0  0  0  0  0  0  0  0  0
    5.0013   -2.8875    0.0000 C   0  0  0  0  0  0  0  0  0  0  0  0
    4.2868   -2.4750    0.0000 C   0  0  0  0  0  0  0  0  0  0  0  0
  1  2  2  0  0  0  0
  2  3  1  0  0  0  0
  2  4  1  0  0  0  0
  4  5  4  0  0  0  0
  5  6  4  0  0  0  0
  6  7  4  0  0  0  0
  7  8  4  0  0  0  0
  8  9  4  0  0  0  0
  4  9  4  0  0  0  0
  9 10  1  0  0  0  0
 10 11  1  0  0  0  0
 11 12  4  0  0  0  0
 12 13  4  0  0  0  0
 13 14  4  0  0  0  0
 14 15  4  0  0  0  0
 15 16  4  0  0  0  0
 11 16  4  0  0  0  0
M  END
> <IC50(uM)>
17.4

> <Outcome>
0.0

> <BindingDB ID>
50527791

> <BindingDB MonomerID>
50201635

> <BindingDB Ligand Name>
CHEMBL3944693

> <Curation/DataSource>
ChEMBL

> <Article DOI>
10.1021/acsmedchemlett.6b00316

> <PMID>
27994748

> <Patent Number>
?

> <Authors>
Lewis, TA; Sykes, DB; Law, JM; Mu??oz, B; Rustiguel, JK; Nonato, MC; Scadden, DT; Schreiber, SL

> <Link to Ligand in BindingDB>
http://www.bindingdb.org/bind/chemsearch/marvin/MolStructure.jsp?monomerid=50201635

> <Link to Ligand-Target Pair in BindingDB>
http://www.bindingdb.org/jsp/dbsearch/PrimarySearch_ki.jsp?energyterm=kJ/mole&tag=r21&monomerid=50201635&enzyme=Dihydroorotate+dehydrogenase&column=ki&startPg=0&Increment=50&submit=Search

> <PubChem CID>
1481799

> <PubChem SID>
375979423

$$$$

  Mrv2115 07222212352D          

 27 28  0  0  0  0            999 V2000
    1.4289   -6.6000    0.0000 C   0  0  0  0  0  0  0  0  0  0  0  0
    2.1434   -6.1875    0.0000 C   0  0  0  0  0  0  0  0  0  0  0  0
    2.8579   -6.6000    0.0000 C   0  0  0  0  0  0  0  0  0  0  0  0
    2.8579   -7.4250    0.0000 O   0  0  0  0  0  0  0  0  0  0  0  0
    3.5724   -6.1875    0.0000 C   0  0  0  0  0  0  0  0  0  0  0  0
    3.5724   -5.3625    0.0000 C   0  0  0  0  0  0  0  0  0  0  0  0
    3.5724   -4.5375    0.0000 N   0  0  0  0  0  0  0  0  0  0  0  0
    4.2868   -6.6000    0.0000 C   0  0  0  0  0  0  0  0  0  0  0  0
    4.2868   -7.4250    0.0000 O   0  0  0  0  0  0  0  0  0  0  0  0
    5.0013   -6.1875    0.0000 N   0  0  0  0  0  0  0  0  0  0  0  0
    5.7158   -6.6000    0.0000 C   0  0  0  0  0  0  0  0  0  0  0  0
    6.4302   -6.1875    0.0000 C   0  0  0  0  0  0  0  0  0  0  0  0
    7.1447   -6.6000    0.0000 C   0  0  0  0  0  0  0  0  0  0  0  0
    7.1447   -7.4250    0.0000 C   0  0  0  0  0  0  0  0  0  0  0  0
    7.8592   -7.8375    0.0000 C   0  0  0  0  0  0  0  0  0  0  0  0
    8.5737   -7.4250    0.0000 C   0  0  0  0  0  0  0  0  0  0  0  0
    9.2881   -7.8375    0.0000 C   0  0  0  0  0  0  0  0  0  0  0  0
    9.2881   -8.6625    0.0000 C   0  0  0  0  0  0  0  0  0  0  0  0
   10.0026   -9.0750    0.0000 F   0  0  0  0  0  0  0  0  0  0  0  0
    8.5737   -9.0750    0.0000 C   0  0  0  0  0  0  0  0  0  0  0  0
    7.8592   -8.6625    0.0000 C   0  0  0  0  0  0  0  0  0  0  0  0
    6.4302   -7.8375    0.0000 C   0  0  0  0  0  0  0  0  0  0  0  0
    6.4302   -8.6625    0.0000 C   0  0  0  0  0  0  0  0  0  0  0  0
    5.7158   -9.0750    0.0000 O   0  0  0  0  0  0  0  0  0  0  0  0
    7.1447   -9.0750    0.0000 O   0  0  0  0  0  0  0  0  0  0  0  0
    7.1447   -9.9000    0.0000 C   0  0  0  0  0  0  0  0  0  0  0  0
    5.7158   -7.4250    0.0000 C   0  0  0  0  0  0  0  0  0  0  0  0
  1  2  1  0  0  0  0
  2  3  1  0  0  0  0
  3  4  2  0  0  0  0
  3  5  1  0  0  0  0
  5  6  1  0  0  0  0
  6  7  3  0  0  0  0
  5  8  1  0  0  0  0
  8  9  2  0  0  0  0
  8 10  1  0  0  0  0
 10 11  1  0  0  0  0
 11 12  4  0  0  0  0
 12 13  4  0  0  0  0
 13 14  4  0  0  0  0
 14 15  1  0  0  0  0
 15 16  4  0  0  0  0
 16 17  4  0  0  0  0
 17 18  4  0  0  0  0
 18 19  1  0  0  0  0
 18 20  4  0  0  0  0
 20 21  4  0  0  0  0
 15 21  4  0  0  0  0
 14 22  4  0  0  0  0
 22 23  1  0  0  0  0
 23 24  2  0  0  0  0
 23 25  1  0  0  0  0
 25 26  1  0  0  0  0
 22 27  4  0  0  0  0
 11 27  4  0  0  0  0
M  END
> <IC50(uM)>
0.11

> <Outcome>
1.0

> <BindingDB ID>
50707370

> <BindingDB MonomerID>
50359691

> <BindingDB Ligand Name>
CHEMBL1929435

> <Curation/DataSource>
ChEMBL

> <Article DOI>
10.1016/j.bmcl.2011.10.052

> <PMID>
22078215

> <Patent Number>
?

> <Authors>
Erra, M; Moreno, I; Sanahuja, J; Andres, M; Reinoso, RF; Lozoya, E; Pizcueta, P; Godessart, N; Castro-Palomino, JC

> <Link to Ligand in BindingDB>
http://www.bindingdb.org/bind/chemsearch/marvin/MolStructure.jsp?monomerid=50359691

> <Link to Ligand-Target Pair in BindingDB>
http://www.bindingdb.org/jsp/dbsearch/PrimarySearch_ki.jsp?energyterm=kJ/mole&tag=r21&monomerid=50359691&enzyme=Dihydroorotate+dehydrogenase&column=ki&startPg=0&Increment=50&submit=Search

> <PubChem CID>
91930439

> <PubChem SID>
136963715

$$$$

  Mrv2115 07222212352D          

 35 38  0  0  0  0            999 V2000
   -3.1034    2.1599    0.0000 C   0  0  0  0  0  0  0  0  0  0  0  0
   -2.6909    1.4455    0.0000 C   0  0  0  0  0  0  0  0  0  0  0  0
   -3.1034    0.7310    0.0000 O   0  0  0  0  0  0  0  0  0  0  0  0
   -2.6909    0.0165    0.0000 C   0  0  0  0  0  0  0  0  0  0  0  0
   -1.8659    0.0165    0.0000 C   0  0  0  0  0  0  0  0  0  0  0  0
   -1.4534   -0.6979    0.0000 C   0  0  0  0  0  0  0  0  0  0  0  0
   -0.6284   -0.6979    0.0000 N   0  0  0  0  0  0  0  0  0  0  0  0
   -0.1435   -1.3654    0.0000 N   0  0  0  0  0  0  0  0  0  0  0  0
    0.6411   -1.1104    0.0000 C   0  0  0  0  0  0  0  0  0  0  0  0
    0.6411   -0.2854    0.0000 N   0  0  0  0  0  0  0  0  0  0  0  0
   -0.1435   -0.0305    0.0000 C   0  0  0  0  0  0  0  0  0  0  0  0
   -0.3984    0.7541    0.0000 O   0  0  0  0  0  0  0  0  0  0  0  0
    1.3556    0.1271    0.0000 C   0  0  0  0  0  0  0  0  0  0  0  0
    2.0701   -0.2854    0.0000 C   0  0  0  0  0  0  0  0  0  0  0  0
    2.0701   -1.1104    0.0000 C   0  0  0  0  0  0  0  0  0  0  0  0
    1.3556   -1.5229    0.0000 O   0  0  0  0  0  0  0  0  0  0  0  0
   -1.8659   -1.4124    0.0000 C   0  0  0  0  0  0  0  0  0  0  0  0
   -1.4534   -2.1269    0.0000 F   0  0  0  0  0  0  0  0  0  0  0  0
   -2.6909   -1.4124    0.0000 C   0  0  0  0  0  0  0  0  0  0  0  0
   -3.1034   -0.6979    0.0000 C   0  0  0  0  0  0  0  0  0  0  0  0
   -3.9284   -0.6979    0.0000 C   0  0  0  0  0  0  0  0  0  0  0  0
   -4.3409    0.0165    0.0000 O   0  0  0  0  0  0  0  0  0  0  0  0
   -4.3409   -1.4124    0.0000 N   0  0  0  0  0  0  0  0  0  0  0  0
   -5.1659   -1.4124    0.0000 C   0  0  0  0  0  0  0  0  0  0  0  0
   -5.5784   -2.1269    0.0000 C   0  0  0  0  0  0  0  0  0  0  0  0
   -5.1659   -2.8414    0.0000 F   0  0  0  0  0  0  0  0  0  0  0  0
   -6.4034   -2.1269    0.0000 C   0  0  0  0  0  0  0  0  0  0  0  0
   -6.8159   -1.4124    0.0000 C   0  0  0  0  0  0  0  0  0  0  0  0
   -6.4034   -0.6979    0.0000 C   0  0  0  0  0  0  0  0  0  0  0  0
   -5.5784   -0.6979    0.0000 C   0  0  0  0  0  0  0  0  0  0  0  0
   -5.1659    0.0165    0.0000 F   0  0  0  0  0  0  0  0  0  0  0  0
   -1.8659    1.4455    0.0000 C   0  0  0  0  0  0  0  0  0  0  0  0
   -1.8659    0.6205    0.0000 F   0  0  0  0  0  0  0  0  0  0  0  0
   -1.8659    2.2705    0.0000 F   0  0  0  0  0  0  0  0  0  0  0  0
   -1.0409    1.4455    0.0000 F   0  0  0  0  0  0  0  0  0  0  0  0
  1  2  1  0  0  0  0
  2  3  1  0  0  0  0
  3  4  1  0  0  0  0
  4  5  4  0  0  0  0
  5  6  4  0  0  0  0
  6  7  1  0  0  0  0
  7  8  4  0  0  0  0
  8  9  4  0  0  0  0
  9 10  4  0  0  0  0
 10 11  4  0  0  0  0
  7 11  4  0  0  0  0
 11 12  2  0  0  0  0
 10 13  1  0  0  0  0
 13 14  1  0  0  0  0
 14 15  1  0  0  0  0
 15 16  1  0  0  0  0
  9 16  1  0  0  0  0
  6 17  4  0  0  0  0
 17 18  1  0  0  0  0
 17 19  4  0  0  0  0
 19 20  4  0  0  0  0
  4 20  4  0  0  0  0
 20 21  1  0  0  0  0
 21 22  2  0  0  0  0
 21 23  1  0  0  0  0
 23 24  1  0  0  0  0
 24 25  4  0  0  0  0
 25 26  1  0  0  0  0
 25 27  4  0  0  0  0
 27 28  4  0  0  0  0
 28 29  4  0  0  0  0
 29 30  4  0  0  0  0
 24 30  4  0  0  0  0
 30 31  1  0  0  0  0
  2 32  1  0  0  0  0
 32 33  1  0  0  0  0
 32 34  1  0  0  0  0
 32 35  1  0  0  0  0
M  END
> <IC50(uM)>
0.3

> <Outcome>
1.0

> <BindingDB ID>
1020647

> <BindingDB MonomerID>
490576

> <BindingDB Ligand Name>
N-(2,6-difluorophenyl)-5-fluoro-4-(3-oxo-6,7-dihydro-5H-[1,2,4]triazolo[3,4-b][1,3]oxazin-2(3H)-yl)-2-{[(2S)-1,1,1-trifluoropropan-2-yl]oxy}benzamide::US10968216, Example 244

> <Curation/DataSource>
US Patent

> <Article DOI>
?

> <PMID>
?

> <Patent Number>
US10968216

> <Authors>
Gradl, SN; Nguyen, D; Eis, K; Gunther, J; Stellfeld, T; Janzer, A; Christian, S; Mueller, T; Sheikh, SE; Zhou, HJ; Zhao, C; Sykes, DB; Ferrara, SJ; Liu, K; Herbert, SA; Merz, C; Niehues, M; Nising, CF; Schafer, M; Zimmermann, K; Knablein, J; Thede, K; Faupel, T

> <Link to Ligand in BindingDB>
http://www.bindingdb.org/bind/chemsearch/marvin/MolStructure.jsp?monomerid=490576

> <Link to Ligand-Target Pair in BindingDB>
http://www.bindingdb.org/jsp/dbsearch/PrimarySearch_ki.jsp?energyterm=kJ/mole&tag=r21&monomerid=490576&enzyme=Dihydroorotate+dehydrogenase&column=ki&startPg=0&Increment=50&submit=Search

> <PubChem CID>
134474385

> <PubChem SID>
447117302

$$$$

  Mrv2115 07222212352D          

 31 35  0  0  0  0            999 V2000
    4.0668    2.3479    0.0000 C   0  0  0  0  0  0  0  0  0  0  0  0
    3.3523    1.9354    0.0000 C   0  0  0  0  0  0  0  0  0  0  0  0
    3.3523    1.1104    0.0000 C   0  0  0  0  0  0  0  0  0  0  0  0
    2.6378    0.6979    0.0000 C   0  0  0  0  0  0  0  0  0  0  0  0
    2.6378   -0.1271    0.0000 C   0  0  0  0  0  0  0  0  0  0  0  0
    1.9233   -0.5396    0.0000 O   0  0  0  0  0  0  0  0  0  0  0  0
    3.3523   -0.5396    0.0000 O   0  0  0  0  0  0  0  0  0  0  0  0
    1.9233    1.1104    0.0000 C   0  0  0  0  0  0  0  0  0  0  0  0
    1.1387    0.8555    0.0000 N   0  0  0  0  0  0  0  0  0  0  0  0
    0.6538    1.5229    0.0000 C   0  0  0  0  0  0  0  0  0  0  0  0
   -0.1712    1.5229    0.0000 C   0  0  0  0  0  0  0  0  0  0  0  0
   -0.5837    0.8085    0.0000 C   0  0  0  0  0  0  0  0  0  0  0  0
   -1.4087    0.8085    0.0000 C   0  0  0  0  0  0  0  0  0  0  0  0
   -1.8212    1.5229    0.0000 C   0  0  0  0  0  0  0  0  0  0  0  0
   -2.6462    1.5229    0.0000 C   0  0  0  0  0  0  0  0  0  0  0  0
   -3.1311    0.8555    0.0000 C   0  0  0  0  0  0  0  0  0  0  0  0
   -3.9157    1.1104    0.0000 N   0  0  0  0  0  0  0  0  0  0  0  0
   -3.9157    1.9354    0.0000 N   0  0  0  0  0  0  0  0  0  0  0  0
   -4.5832    2.4204    0.0000 C   0  0  0  0  0  0  0  0  0  0  0  0
   -4.4969    3.2408    0.0000 C   0  0  0  0  0  0  0  0  0  0  0  0
   -5.1644    3.7258    0.0000 C   0  0  0  0  0  0  0  0  0  0  0  0
   -5.0782    4.5462    0.0000 C   0  0  0  0  0  0  0  0  0  0  0  0
   -4.3245    4.8818    0.0000 C   0  0  0  0  0  0  0  0  0  0  0  0
   -3.6570    4.3969    0.0000 C   0  0  0  0  0  0  0  0  0  0  0  0
   -3.7433    3.5764    0.0000 C   0  0  0  0  0  0  0  0  0  0  0  0
   -3.1311    2.1904    0.0000 C   0  0  0  0  0  0  0  0  0  0  0  0
   -1.4087    2.2374    0.0000 C   0  0  0  0  0  0  0  0  0  0  0  0
   -0.5837    2.2374    0.0000 C   0  0  0  0  0  0  0  0  0  0  0  0
    1.1387    2.1904    0.0000 N   0  0  0  0  0  0  0  0  0  0  0  0
    1.9233    1.9354    0.0000 C   0  0  0  0  0  0  0  0  0  0  0  0
    2.6378    2.3479    0.0000 C   0  0  0  0  0  0  0  0  0  0  0  0
  1  2  1  0  0  0  0
  2  3  4  0  0  0  0
  3  4  4  0  0  0  0
  4  5  1  0  0  0  0
  5  6  2  0  0  0  0
  5  7  1  0  0  0  0
  4  8  4  0  0  0  0
  8  9  4  0  0  0  0
  9 10  4  0  0  0  0
 10 11  1  0  0  0  0
 11 12  4  0  0  0  0
 12 13  4  0  0  0  0
 13 14  4  0  0  0  0
 14 15  1  0  0  0  0
 15 16  4  0  0  0  0
 16 17  4  0  0  0  0
 17 18  4  0  0  0  0
 18 19  1  0  0  0  0
 19 20  1  0  0  0  0
 20 21  4  0  0  0  0
 21 22  4  0  0  0  0
 22 23  4  0  0  0  0
 23 24  4  0  0  0  0
 24 25  4  0  0  0  0
 20 25  4  0  0  0  0
 18 26  4  0  0  0  0
 15 26  4  0  0  0  0
 14 27  4  0  0  0  0
 27 28  4  0  0  0  0
 11 28  4  0  0  0  0
 10 29  4  0  0  0  0
 29 30  4  0  0  0  0
  8 30  4  0  0  0  0
 30 31  4  0  0  0  0
  2 31  4  0  0  0  0
M  STY  1   1 DAT
M  SAL   1  1  29
M  SDT   1 MRV_IMPLICIT_H                                        
M  SDD   1     0.5304   -0.4125    DR    ALL  0       0  
M  SED   1 IMPL_H1
M  END
> <IC50(uM)>
0.155

> <Outcome>
1.0

> <BindingDB ID>
297813

> <BindingDB MonomerID>
155469

> <BindingDB Ligand Name>
US9006454, I111

> <Curation/DataSource>
US Patent

> <Article DOI>
?

> <PMID>
?

> <Patent Number>
US9006454

> <Authors>
Thunuguntla, SS; Subramanya, H; Kunnam, SR; Sanivaru Vijay, SR; Bingi, C; Kusanur, R; Schwarz, M; Arlt, M

> <Link to Ligand in BindingDB>
http://www.bindingdb.org/bind/chemsearch/marvin/MolStructure.jsp?monomerid=155469

> <Link to Ligand-Target Pair in BindingDB>
http://www.bindingdb.org/jsp/dbsearch/PrimarySearch_ki.jsp?energyterm=kJ/mole&tag=r21&monomerid=155469&enzyme=Dihydroorotate+dehydrogenase&column=ki&startPg=0&Increment=50&submit=Search

> <PubChem CID>
58073798

> <PubChem SID>
253658406

$$$$

  Mrv2115 07222212352D          

 31 34  0  0  0  0            999 V2000
    0.0000   -1.6500    0.0000 C   0  0  0  0  0  0  0  0  0  0  0  0
    0.7145   -1.2375    0.0000 C   0  0  0  0  0  0  0  0  0  0  0  0
    0.7145   -0.4125    0.0000 C   0  0  0  0  0  0  0  0  0  0  0  0
    0.0000    0.0000    0.0000 C   0  0  0  0  0  0  0  0  0  0  0  0
   -0.7145   -0.4125    0.0000 C   0  0  0  0  0  0  0  0  0  0  0  0
   -1.4289    0.0000    0.0000 C   0  0  0  0  0  0  0  0  0  0  0  0
   -1.4289    0.8250    0.0000 C   0  0  0  0  0  0  0  0  0  0  0  0
   -2.1434    1.2375    0.0000 C   0  0  0  0  0  0  0  0  0  0  0  0
   -2.8579    0.8250    0.0000 C   0  0  0  0  0  0  0  0  0  0  0  0
   -3.5724    1.2375    0.0000 C   0  0  0  0  0  0  0  0  0  0  0  0
   -3.5724    2.0625    0.0000 C   0  0  0  0  0  0  0  0  0  0  0  0
   -2.8579    2.4750    0.0000 C   0  0  0  0  0  0  0  0  0  0  0  0
   -2.1434    2.0625    0.0000 C   0  0  0  0  0  0  0  0  0  0  0  0
   -1.4289    2.4750    0.0000 F   0  0  0  0  0  0  0  0  0  0  0  0
   -0.7145    1.2375    0.0000 C   0  0  0  0  0  0  0  0  0  0  0  0
    0.0000    0.8250    0.0000 C   0  0  0  0  0  0  0  0  0  0  0  0
    1.4289    0.0000    0.0000 N   0  0  0  0  0  0  0  0  0  0  0  0
    2.1434   -0.4125    0.0000 C   0  0  0  0  0  0  0  0  0  0  0  0
    2.8579    0.0000    0.0000 C   0  0  0  0  0  0  0  0  0  0  0  0
    3.5724   -0.4125    0.0000 C   0  0  0  0  0  0  0  0  0  0  0  0
    3.5724   -1.2375    0.0000 C   0  0  0  0  0  0  0  0  0  0  0  0
    4.2868   -1.6500    0.0000 F   0  0  0  0  0  0  0  0  0  0  0  0
    2.8579   -1.6500    0.0000 C   0  0  0  0  0  0  0  0  0  0  0  0
    2.1434   -1.2375    0.0000 C   0  0  0  0  0  0  0  0  0  0  0  0
    1.4289   -1.6500    0.0000 C   0  0  0  0  0  0  0  0  0  0  0  0
    1.4289   -2.4750    0.0000 C   0  0  0  0  0  0  0  0  0  0  0  0
    2.1434   -2.8875    0.0000 O   0  0  0  0  0  0  0  0  0  0  0  0
    0.7145   -2.8875    0.0000 C   0  0  0  0  0  0  0  0  0  0  0  0
    0.3020   -2.1730    0.0000 F   0  0  0  0  0  0  0  0  0  0  0  0
    1.1270   -3.6020    0.0000 F   0  0  0  0  0  0  0  0  0  0  0  0
    0.0000   -3.3000    0.0000 F   0  0  0  0  0  0  0  0  0  0  0  0
  1  2  1  0  0  0  0
  2  3  4  0  0  0  0
  3  4  1  0  0  0  0
  4  5  4  0  0  0  0
  5  6  4  0  0  0  0
  6  7  4  0  0  0  0
  7  8  1  0  0  0  0
  8  9  4  0  0  0  0
  9 10  4  0  0  0  0
 10 11  4  0  0  0  0
 11 12  4  0  0  0  0
 12 13  4  0  0  0  0
  8 13  4  0  0  0  0
 13 14  1  0  0  0  0
  7 15  4  0  0  0  0
 15 16  4  0  0  0  0
  4 16  4  0  0  0  0
  3 17  4  0  0  0  0
 17 18  4  0  0  0  0
 18 19  4  0  0  0  0
 19 20  4  0  0  0  0
 20 21  4  0  0  0  0
 21 22  1  0  0  0  0
 21 23  4  0  0  0  0
 23 24  4  0  0  0  0
 18 24  4  0  0  0  0
 24 25  4  0  0  0  0
  2 25  4  0  0  0  0
 25 26  1  0  0  0  0
 26 27  1  0  0  0  0
 26 28  1  0  0  0  0
 28 29  1  0  0  0  0
 28 30  1  0  0  0  0
 28 31  1  0  0  0  0
M  END
> <IC50(uM)>
0.808

> <Outcome>
1.0

> <BindingDB ID>
51370189

> <BindingDB MonomerID>
50554017

> <BindingDB Ligand Name>
CHEMBL4793693

> <Curation/DataSource>
ChEMBL

> <Article DOI>
?

> <PMID>
33007394

> <Patent Number>
?

> <Authors>
DeRatt, LG; Christine Pietsch, E; Tanner, A; Shaffer, P; Jacoby, E; Wang, W; Kazmi, F; Zhang, X; Attar, RM; Edwards, JP; Kuduk, SD

> <Link to Ligand in BindingDB>
http://www.bindingdb.org/bind/chemsearch/marvin/MolStructure.jsp?monomerid=50554017

> <Link to Ligand-Target Pair in BindingDB>
http://www.bindingdb.org/jsp/dbsearch/PrimarySearch_ki.jsp?energyterm=kJ/mole&tag=r21&monomerid=50554017&enzyme=Dihydroorotate+dehydrogenase&column=ki&startPg=0&Increment=50&submit=Search

> <PubChem CID>
162673274

> <PubChem SID>
461692785

$$$$

  Mrv2115 07222212352D          

 37 41  0  0  0  0            999 V2000
   -1.8659    1.4455    0.0000 C   0  0  0  0  0  0  0  0  0  0  0  0
   -2.6909    1.4455    0.0000 C   0  0  0  0  0  0  0  0  0  0  0  0
   -3.1034    0.7310    0.0000 O   0  0  0  0  0  0  0  0  0  0  0  0
   -2.6909    0.0165    0.0000 C   0  0  0  0  0  0  0  0  0  0  0  0
   -1.8659    0.0165    0.0000 C   0  0  0  0  0  0  0  0  0  0  0  0
   -1.4534   -0.6979    0.0000 C   0  0  0  0  0  0  0  0  0  0  0  0
   -0.6284   -0.6979    0.0000 N   0  0  0  0  0  0  0  0  0  0  0  0
   -0.1435   -1.3654    0.0000 N   0  0  0  0  0  0  0  0  0  0  0  0
    0.6411   -1.1104    0.0000 C   0  0  0  0  0  0  0  0  0  0  0  0
    0.6411   -0.2854    0.0000 N   0  0  0  0  0  0  0  0  0  0  0  0
   -0.1435   -0.0305    0.0000 C   0  0  0  0  0  0  0  0  0  0  0  0
   -0.3984    0.7541    0.0000 O   0  0  0  0  0  0  0  0  0  0  0  0
    1.3556    0.1271    0.0000 C   0  0  0  0  0  0  0  0  0  0  0  0
    2.0701   -0.2854    0.0000 C   0  0  0  0  0  0  0  0  0  0  0  0
    2.0701   -1.1104    0.0000 C   0  0  0  0  0  0  0  0  0  0  0  0
    1.3556   -1.5229    0.0000 C   0  0  0  0  0  0  0  0  0  0  0  0
   -1.8659   -1.4124    0.0000 C   0  0  0  0  0  0  0  0  0  0  0  0
   -1.4534   -2.1269    0.0000 F   0  0  0  0  0  0  0  0  0  0  0  0
   -2.6909   -1.4124    0.0000 C   0  0  0  0  0  0  0  0  0  0  0  0
   -3.1034   -0.6979    0.0000 C   0  0  0  0  0  0  0  0  0  0  0  0
   -3.9284   -0.6979    0.0000 C   0  0  0  0  0  0  0  0  0  0  0  0
   -4.3409    0.0165    0.0000 O   0  0  0  0  0  0  0  0  0  0  0  0
   -4.3409   -1.4124    0.0000 N   0  0  0  0  0  0  0  0  0  0  0  0
   -5.1659   -1.4124    0.0000 C   0  0  0  0  0  0  0  0  0  0  0  0
   -5.3092   -2.2249    0.0000 C   0  0  0  0  0  0  0  0  0  0  0  0
   -4.6772   -2.7552    0.0000 C   0  0  0  0  0  0  0  0  0  0  0  0
   -4.8205   -3.5676    0.0000 C   0  0  0  0  0  0  0  0  0  0  0  0
   -5.5957   -3.8498    0.0000 C   0  0  0  0  0  0  0  0  0  0  0  0
   -5.7390   -4.6623    0.0000 F   0  0  0  0  0  0  0  0  0  0  0  0
   -6.2277   -3.3195    0.0000 C   0  0  0  0  0  0  0  0  0  0  0  0
   -6.0844   -2.5070    0.0000 C   0  0  0  0  0  0  0  0  0  0  0  0
   -5.3092   -0.5999    0.0000 C   0  0  0  0  0  0  0  0  0  0  0  0
   -5.9412   -1.1302    0.0000 C   0  0  0  0  0  0  0  0  0  0  0  0
   -3.1034    2.1599    0.0000 C   0  0  0  0  0  0  0  0  0  0  0  0
   -2.3890    2.5724    0.0000 F   0  0  0  0  0  0  0  0  0  0  0  0
   -3.8179    1.7474    0.0000 F   0  0  0  0  0  0  0  0  0  0  0  0
   -3.5159    2.8744    0.0000 F   0  0  0  0  0  0  0  0  0  0  0  0
  1  2  1  0  0  0  0
  2  3  1  0  0  0  0
  3  4  1  0  0  0  0
  4  5  4  0  0  0  0
  5  6  4  0  0  0  0
  6  7  1  0  0  0  0
  7  8  4  0  0  0  0
  8  9  4  0  0  0  0
  9 10  4  0  0  0  0
 10 11  4  0  0  0  0
  7 11  4  0  0  0  0
 11 12  2  0  0  0  0
 10 13  1  0  0  0  0
 13 14  1  0  0  0  0
 14 15  1  0  0  0  0
 15 16  1  0  0  0  0
  9 16  1  0  0  0  0
  6 17  4  0  0  0  0
 17 18  1  0  0  0  0
 17 19  4  0  0  0  0
 19 20  4  0  0  0  0
  4 20  4  0  0  0  0
 20 21  1  0  0  0  0
 21 22  2  0  0  0  0
 21 23  1  0  0  0  0
 23 24  1  0  0  0  0
 24 25  1  0  0  0  0
 25 26  4  0  0  0  0
 26 27  4  0  0  0  0
 27 28  4  0  0  0  0
 28 29  1  0  0  0  0
 28 30  4  0  0  0  0
 30 31  4  0  0  0  0
 25 31  4  0  0  0  0
 24 32  1  0  0  0  0
 32 33  1  0  0  0  0
 24 33  1  0  0  0  0
  2 34  1  0  0  0  0
 34 35  1  0  0  0  0
 34 36  1  0  0  0  0
 34 37  1  0  0  0  0
M  END
> <IC50(uM)>
0.055

> <Outcome>
1.0

> <BindingDB ID>
1020493

> <BindingDB MonomerID>
490441

> <BindingDB Ligand Name>
5-fluoro-N-[1-(4-fluorophenyl)cyclopropyl]-4-(3-oxo-5,6,7,8-tetrahydro[1,2,4]triazolo[4,3-a]-pyridin-2(3H)-yl)-2-{[(2S)-1,1,1-trifluoropropan-2-yl]oxy}benzamide::US10968216, Example 109

> <Curation/DataSource>
US Patent

> <Article DOI>
?

> <PMID>
?

> <Patent Number>
US10968216

> <Authors>
Gradl, SN; Nguyen, D; Eis, K; Gunther, J; Stellfeld, T; Janzer, A; Christian, S; Mueller, T; Sheikh, SE; Zhou, HJ; Zhao, C; Sykes, DB; Ferrara, SJ; Liu, K; Herbert, SA; Merz, C; Niehues, M; Nising, CF; Schafer, M; Zimmermann, K; Knablein, J; Thede, K; Faupel, T

> <Link to Ligand in BindingDB>
http://www.bindingdb.org/bind/chemsearch/marvin/MolStructure.jsp?monomerid=490441

> <Link to Ligand-Target Pair in BindingDB>
http://www.bindingdb.org/jsp/dbsearch/PrimarySearch_ki.jsp?energyterm=kJ/mole&tag=r21&monomerid=490441&enzyme=Dihydroorotate+dehydrogenase&column=ki&startPg=0&Increment=50&submit=Search

> <PubChem CID>
134474116

> <PubChem SID>
447117168

$$$$

  Mrv2115 07222212352D          

 26 29  0  0  0  0            999 V2000
    2.5645    4.9500    0.0000 C   0  0  0  0  0  0  0  0  0  0  0  0
    3.2789    4.5375    0.0000 C   0  0  0  0  0  0  0  0  0  0  0  0
    3.9934    4.9500    0.0000 C   0  0  0  0  0  0  0  0  0  0  0  0
    4.7079    4.5375    0.0000 C   0  0  0  0  0  0  0  0  0  0  0  0
    4.7079    3.7125    0.0000 C   0  0  0  0  0  0  0  0  0  0  0  0
    3.9934    3.3000    0.0000 C   0  0  0  0  0  0  0  0  0  0  0  0
    3.9934    2.4750    0.0000 C   0  0  0  0  0  0  0  0  0  0  0  0
    4.7079    2.0625    0.0000 O   0  0  0  0  0  0  0  0  0  0  0  0
    3.2789    2.0625    0.0000 N   0  0  0  0  0  0  0  0  0  0  0  0
    3.2789    1.2375    0.0000 C   0  0  0  0  0  0  0  0  0  0  0  0
    3.9934    0.8250    0.0000 C   0  0  0  0  0  0  0  0  0  0  0  0
    3.9934    0.0000    0.0000 C   0  0  0  0  0  0  0  0  0  0  0  0
    3.2789   -0.4125    0.0000 C   0  0  0  0  0  0  0  0  0  0  0  0
    2.5645    0.0000    0.0000 C   0  0  0  0  0  0  0  0  0  0  0  0
    2.5645    0.8250    0.0000 C   0  0  0  0  0  0  0  0  0  0  0  0
    1.7798    1.0799    0.0000 C   0  0  0  0  0  0  0  0  0  0  0  0
    1.2949    0.4125    0.0000 N   0  0  0  0  0  0  0  0  0  0  0  0
    1.7798   -0.2549    0.0000 N   0  0  0  0  0  0  0  0  0  0  0  0
    1.5249   -1.0396    0.0000 C   0  0  0  0  0  0  0  0  0  0  0  0
    2.0769   -1.6527    0.0000 C   0  0  0  0  0  0  0  0  0  0  0  0
    1.8220   -2.4373    0.0000 C   0  0  0  0  0  0  0  0  0  0  0  0
    1.0150   -2.6088    0.0000 C   0  0  0  0  0  0  0  0  0  0  0  0
    0.4630   -1.9957    0.0000 C   0  0  0  0  0  0  0  0  0  0  0  0
    0.7179   -1.2111    0.0000 C   0  0  0  0  0  0  0  0  0  0  0  0
    0.1659   -0.5980    0.0000 C   0  0  0  0  0  0  0  0  0  0  0  0
    3.2789    3.7125    0.0000 N   0  0  0  0  0  0  0  0  0  0  0  0
  1  2  1  0  0  0  0
  2  3  4  0  0  0  0
  3  4  4  0  0  0  0
  4  5  4  0  0  0  0
  5  6  4  0  0  0  0
  6  7  1  0  0  0  0
  7  8  2  0  0  0  0
  7  9  1  0  0  0  0
  9 10  1  0  0  0  0
 10 11  1  0  0  0  0
 11 12  1  0  0  0  0
 12 13  1  0  0  0  0
 13 14  1  0  0  0  0
 14 15  4  0  0  0  0
 10 15  1  0  0  0  0
 15 16  4  0  0  0  0
 16 17  4  0  0  0  0
 17 18  4  0  0  0  0
 14 18  4  0  0  0  0
 18 19  1  0  0  0  0
 19 20  4  0  0  0  0
 20 21  4  0  0  0  0
 21 22  4  0  0  0  0
 22 23  4  0  0  0  0
 23 24  4  0  0  0  0
 19 24  4  0  0  0  0
 24 25  1  0  0  0  0
  6 26  4  0  0  0  0
  2 26  4  0  0  0  0
M  END
> <IC50(uM)>
3.0

> <Outcome>
0.0

> <BindingDB ID>
993113

> <BindingDB MonomerID>
477615

> <BindingDB Ligand Name>
6-methyl-N-[(4R)-1-(2-methylphenyl)-4,5,6,7-tetrahydro-1H-indazol-4-yl]pyridine-2-carboxamide::US10889564, Example 45

> <Curation/DataSource>
US Patent

> <Article DOI>
?

> <PMID>
?

> <Patent Number>
US10889564

> <Authors>
Lain, S; Drummond, C; Leeuwen, IV; Haraldsson, M; Johansson, L; Sandberg, L; Yngve, U

> <Link to Ligand in BindingDB>
http://www.bindingdb.org/bind/chemsearch/marvin/MolStructure.jsp?monomerid=477615

> <Link to Ligand-Target Pair in BindingDB>
http://www.bindingdb.org/jsp/dbsearch/PrimarySearch_ki.jsp?energyterm=kJ/mole&tag=r21&monomerid=477615&enzyme=Dihydroorotate+dehydrogenase&column=ki&startPg=0&Increment=50&submit=Search

> <PubChem CID>
129104761

> <PubChem SID>
442137232

$$$$

  Mrv2115 07222212352D          

 32 36  0  0  0  0            999 V2000
    6.2341   -5.9188    0.0000 C   0  0  0  0  0  0  0  0  0  0  0  0
    5.4271   -5.7473    0.0000 C   0  0  0  0  0  0  0  0  0  0  0  0
    4.8750   -6.3604    0.0000 C   0  0  0  0  0  0  0  0  0  0  0  0
    5.1721   -4.9627    0.0000 C   0  0  0  0  0  0  0  0  0  0  0  0
    4.3652   -4.7911    0.0000 C   0  0  0  0  0  0  0  0  0  0  0  0
    4.1102   -4.0065    0.0000 C   0  0  0  0  0  0  0  0  0  0  0  0
    4.6623   -3.3934    0.0000 C   0  0  0  0  0  0  0  0  0  0  0  0
    4.4073   -2.6088    0.0000 C   0  0  0  0  0  0  0  0  0  0  0  0
    3.6004   -2.4373    0.0000 C   0  0  0  0  0  0  0  0  0  0  0  0
    3.0483   -3.0504    0.0000 F   0  0  0  0  0  0  0  0  0  0  0  0
    3.3454   -1.6527    0.0000 C   0  0  0  0  0  0  0  0  0  0  0  0
    3.8974   -1.0396    0.0000 C   0  0  0  0  0  0  0  0  0  0  0  0
    3.6425   -0.2549    0.0000 N   0  0  0  0  0  0  0  0  0  0  0  0
    4.1274    0.4125    0.0000 N   0  0  0  0  0  0  0  0  0  0  0  0
    3.6425    1.0799    0.0000 N   0  0  0  0  0  0  0  0  0  0  0  0
    2.8579    0.8250    0.0000 C   0  0  0  0  0  0  0  0  0  0  0  0
    2.8579    0.0000    0.0000 C   0  0  0  0  0  0  0  0  0  0  0  0
    2.1434   -0.4125    0.0000 C   0  0  0  0  0  0  0  0  0  0  0  0
    2.1434   -1.2375    0.0000 O   0  0  0  0  0  0  0  0  0  0  0  0
    1.4289   -0.0000    0.0000 C   0  0  0  0  0  0  0  0  0  0  0  0
    0.7145   -0.4125    0.0000 C   0  0  0  0  0  0  0  0  0  0  0  0
   -0.0000    0.0000    0.0000 C   0  0  0  0  0  0  0  0  0  0  0  0
    0.0000    0.8250    0.0000 C   0  0  0  0  0  0  0  0  0  0  0  0
    0.7145    1.2375    0.0000 C   0  0  0  0  0  0  0  0  0  0  0  0
    1.4289    0.8250    0.0000 C   0  0  0  0  0  0  0  0  0  0  0  0
    2.1434    1.2375    0.0000 C   0  0  0  0  0  0  0  0  0  0  0  0
    2.1434    2.0625    0.0000 O   0  0  0  0  0  0  0  0  0  0  0  0
    4.7044   -1.2111    0.0000 C   0  0  0  0  0  0  0  0  0  0  0  0
    4.9594   -1.9957    0.0000 C   0  0  0  0  0  0  0  0  0  0  0  0
    5.7663   -2.1672    0.0000 F   0  0  0  0  0  0  0  0  0  0  0  0
    5.4692   -3.5650    0.0000 C   0  0  0  0  0  0  0  0  0  0  0  0
    5.7242   -4.3496    0.0000 C   0  0  0  0  0  0  0  0  0  0  0  0
  1  2  1  0  0  0  0
  2  3  1  0  0  0  0
  2  4  1  0  0  0  0
  4  5  4  0  0  0  0
  5  6  4  0  0  0  0
  6  7  4  0  0  0  0
  7  8  1  0  0  0  0
  8  9  4  0  0  0  0
  9 10  1  0  0  0  0
  9 11  4  0  0  0  0
 11 12  4  0  0  0  0
 12 13  1  0  0  0  0
 13 14  4  0  0  0  0
 14 15  4  0  0  0  0
 15 16  4  0  0  0  0
 16 17  4  0  0  0  0
 13 17  4  0  0  0  0
 17 18  1  0  0  0  0
 18 19  2  0  0  0  0
 18 20  1  0  0  0  0
 20 21  4  0  0  0  0
 21 22  4  0  0  0  0
 22 23  4  0  0  0  0
 23 24  4  0  0  0  0
 24 25  4  0  0  0  0
 20 25  4  0  0  0  0
 25 26  1  0  0  0  0
 16 26  1  0  0  0  0
 26 27  2  0  0  0  0
 12 28  4  0  0  0  0
 28 29  4  0  0  0  0
  8 29  4  0  0  0  0
 29 30  1  0  0  0  0
  7 31  4  0  0  0  0
 31 32  4  0  0  0  0
  4 32  4  0  0  0  0
M  END
> <IC50(uM)>
0.076

> <Outcome>
1.0

> <BindingDB ID>
51338197

> <BindingDB MonomerID>
50541671

> <BindingDB Ligand Name>
CHEMBL4636651

> <Curation/DataSource>
ChEMBL

> <Article DOI>
10.1021/acs.jmedchem.0c00512

> <PMID>
32496056

> <Patent Number>
?

> <Authors>
Zuo, Z; Liu, X; Qian, X; Zeng, T; Sang, N; Liu, H; Zhou, Y; Tao, L; Zhou, X; Su, N; Yu, Y; Chen, Q; Luo, Y; Zhao, Y

> <Link to Ligand in BindingDB>
http://www.bindingdb.org/bind/chemsearch/marvin/MolStructure.jsp?monomerid=50541671

> <Link to Ligand-Target Pair in BindingDB>
http://www.bindingdb.org/jsp/dbsearch/PrimarySearch_ki.jsp?energyterm=kJ/mole&tag=r21&monomerid=50541671&enzyme=Dihydroorotate+dehydrogenase&column=ki&startPg=0&Increment=50&submit=Search

> <PubChem CID>
156012419

> <PubChem SID>
442143234

$$$$

  Mrv2115 07222212352D          

 31 34  0  0  0  0            999 V2000
   -3.1034    2.1599    0.0000 C   0  0  0  0  0  0  0  0  0  0  0  0
   -2.6909    1.4455    0.0000 C   0  0  0  0  0  0  0  0  0  0  0  0
   -3.1034    0.7310    0.0000 O   0  0  0  0  0  0  0  0  0  0  0  0
   -2.6909    0.0165    0.0000 C   0  0  0  0  0  0  0  0  0  0  0  0
   -1.8659    0.0165    0.0000 C   0  0  0  0  0  0  0  0  0  0  0  0
   -1.4534   -0.6979    0.0000 C   0  0  0  0  0  0  0  0  0  0  0  0
   -0.6284   -0.6979    0.0000 N   0  0  0  0  0  0  0  0  0  0  0  0
   -0.1435   -1.3654    0.0000 N   0  0  0  0  0  0  0  0  0  0  0  0
    0.6411   -1.1104    0.0000 C   0  0  0  0  0  0  0  0  0  0  0  0
    0.6411   -0.2854    0.0000 N   0  0  0  0  0  0  0  0  0  0  0  0
   -0.1435   -0.0305    0.0000 C   0  0  0  0  0  0  0  0  0  0  0  0
   -0.3984    0.7541    0.0000 O   0  0  0  0  0  0  0  0  0  0  0  0
    1.3556    0.1271    0.0000 C   0  0  0  0  0  0  0  0  0  0  0  0
    2.0701   -0.2854    0.0000 C   0  0  0  0  0  0  0  0  0  0  0  0
    2.0701   -1.1104    0.0000 C   0  0  0  0  0  0  0  0  0  0  0  0
    1.3556   -1.5229    0.0000 C   0  0  0  0  0  0  0  0  0  0  0  0
   -1.8659   -1.4124    0.0000 C   0  0  0  0  0  0  0  0  0  0  0  0
   -1.4534   -2.1269    0.0000 F   0  0  0  0  0  0  0  0  0  0  0  0
   -2.6909   -1.4124    0.0000 C   0  0  0  0  0  0  0  0  0  0  0  0
   -3.1034   -0.6979    0.0000 C   0  0  0  0  0  0  0  0  0  0  0  0
   -3.9284   -0.6979    0.0000 C   0  0  0  0  0  0  0  0  0  0  0  0
   -4.3409    0.0165    0.0000 O   0  0  0  0  0  0  0  0  0  0  0  0
   -4.3409   -1.4124    0.0000 N   0  0  0  0  0  0  0  0  0  0  0  0
   -5.1659   -1.4124    0.0000 C   0  0  0  0  0  0  0  0  0  0  0  0
   -5.7493   -1.9958    0.0000 C   0  0  0  0  0  0  0  0  0  0  0  0
   -6.3327   -1.4124    0.0000 O   0  0  0  0  0  0  0  0  0  0  0  0
   -5.7493   -0.8291    0.0000 C   0  0  0  0  0  0  0  0  0  0  0  0
   -1.8659    1.4455    0.0000 C   0  0  0  0  0  0  0  0  0  0  0  0
   -1.8659    0.6205    0.0000 F   0  0  0  0  0  0  0  0  0  0  0  0
   -1.8659    2.2705    0.0000 F   0  0  0  0  0  0  0  0  0  0  0  0
   -1.0409    1.4455    0.0000 F   0  0  0  0  0  0  0  0  0  0  0  0
  1  2  1  0  0  0  0
  2  3  1  0  0  0  0
  3  4  1  0  0  0  0
  4  5  4  0  0  0  0
  5  6  4  0  0  0  0
  6  7  1  0  0  0  0
  7  8  4  0  0  0  0
  8  9  4  0  0  0  0
  9 10  4  0  0  0  0
 10 11  4  0  0  0  0
  7 11  4  0  0  0  0
 11 12  2  0  0  0  0
 10 13  1  0  0  0  0
 13 14  1  0  0  0  0
 14 15  1  0  0  0  0
 15 16  1  0  0  0  0
  9 16  1  0  0  0  0
  6 17  4  0  0  0  0
 17 18  1  0  0  0  0
 17 19  4  0  0  0  0
 19 20  4  0  0  0  0
  4 20  4  0  0  0  0
 20 21  1  0  0  0  0
 21 22  2  0  0  0  0
 21 23  1  0  0  0  0
 23 24  1  0  0  0  0
 24 25  1  0  0  0  0
 25 26  1  0  0  0  0
 26 27  1  0  0  0  0
 24 27  1  0  0  0  0
  2 28  1  0  0  0  0
 28 29  1  0  0  0  0
 28 30  1  0  0  0  0
 28 31  1  0  0  0  0
M  END
> <IC50(uM)>
30.0

> <Outcome>
0.0

> <BindingDB ID>
1020413

> <BindingDB MonomerID>
490364

> <BindingDB Ligand Name>
5-fluoro-N-(oxetan-3-yl)-4-(3-oxo-5,6,7,8-tetrahydro[1,2,4]triazolo[4,3-a]pyridin-2(3H)-yl)-2-{[(2S)-1,1,1-trifluoropropan-2-yl]oxy}benzamide::US10968216, Example 32

> <Curation/DataSource>
US Patent

> <Article DOI>
?

> <PMID>
?

> <Patent Number>
US10968216

> <Authors>
Gradl, SN; Nguyen, D; Eis, K; Gunther, J; Stellfeld, T; Janzer, A; Christian, S; Mueller, T; Sheikh, SE; Zhou, HJ; Zhao, C; Sykes, DB; Ferrara, SJ; Liu, K; Herbert, SA; Merz, C; Niehues, M; Nising, CF; Schafer, M; Zimmermann, K; Knablein, J; Thede, K; Faupel, T

> <Link to Ligand in BindingDB>
http://www.bindingdb.org/bind/chemsearch/marvin/MolStructure.jsp?monomerid=490364

> <Link to Ligand-Target Pair in BindingDB>
http://www.bindingdb.org/jsp/dbsearch/PrimarySearch_ki.jsp?energyterm=kJ/mole&tag=r21&monomerid=490364&enzyme=Dihydroorotate+dehydrogenase&column=ki&startPg=0&Increment=50&submit=Search

> <PubChem CID>
134474102

> <PubChem SID>
447117091

$$$$

  Mrv2115 07222212352D          

 30 33  0  0  0  0            999 V2000
   -2.1434   -3.7125    0.0000 C   0  0  0  0  0  0  0  0  0  0  0  0
   -2.1434   -2.8875    0.0000 O   0  0  0  0  0  0  0  0  0  0  0  0
   -1.4289   -2.4750    0.0000 C   0  0  0  0  0  0  0  0  0  0  0  0
   -1.4289   -1.6500    0.0000 C   0  0  0  0  0  0  0  0  0  0  0  0
   -0.7145   -1.2375    0.0000 C   0  0  0  0  0  0  0  0  0  0  0  0
    0.0000   -1.6500    0.0000 C   0  0  0  0  0  0  0  0  0  0  0  0
    0.7145   -1.2375    0.0000 C   0  0  0  0  0  0  0  0  0  0  0  0
    0.7145   -0.4125    0.0000 C   0  0  0  0  0  0  0  0  0  0  0  0
    1.4289    0.0000    0.0000 C   0  0  0  0  0  0  0  0  0  0  0  0
    1.4289    0.8250    0.0000 C   0  0  0  0  0  0  0  0  0  0  0  0
    0.7145    1.2375    0.0000 O   0  0  0  0  0  0  0  0  0  0  0  0
    2.1434    1.2375    0.0000 O   0  0  0  0  0  0  0  0  0  0  0  0
    2.1434    2.0625    0.0000 C   0  0  0  0  0  0  0  0  0  0  0  0
    2.8579    2.4750    0.0000 C   0  0  0  0  0  0  0  0  0  0  0  0
    2.8579    3.3000    0.0000 C   0  0  0  0  0  0  0  0  0  0  0  0
    3.5724    3.7125    0.0000 C   0  0  0  0  0  0  0  0  0  0  0  0
    4.2868    3.3000    0.0000 C   0  0  0  0  0  0  0  0  0  0  0  0
    4.2868    2.4750    0.0000 C   0  0  0  0  0  0  0  0  0  0  0  0
    3.5724    2.0625    0.0000 C   0  0  0  0  0  0  0  0  0  0  0  0
    2.1434   -0.4125    0.0000 C   0  0  0  0  0  0  0  0  0  0  0  0
    2.8579    0.0000    0.0000 C   0  0  0  0  0  0  0  0  0  0  0  0
    3.5724   -0.4125    0.0000 C   0  0  0  0  0  0  0  0  0  0  0  0
    4.2868   -0.0000    0.0000 Cl  0  0  0  0  0  0  0  0  0  0  0  0
    3.5724   -1.2375    0.0000 C   0  0  0  0  0  0  0  0  0  0  0  0
    4.2868   -1.6500    0.0000 Cl  0  0  0  0  0  0  0  0  0  0  0  0
    2.8579   -1.6500    0.0000 C   0  0  0  0  0  0  0  0  0  0  0  0
    2.1434   -1.2375    0.0000 C   0  0  0  0  0  0  0  0  0  0  0  0
    1.4289   -1.6500    0.0000 N   0  0  0  0  0  0  0  0  0  0  0  0
    0.0000   -2.4750    0.0000 C   0  0  0  0  0  0  0  0  0  0  0  0
   -0.7145   -2.8875    0.0000 C   0  0  0  0  0  0  0  0  0  0  0  0
  1  2  1  0  0  0  0
  2  3  1  0  0  0  0
  3  4  4  0  0  0  0
  4  5  4  0  0  0  0
  5  6  4  0  0  0  0
  6  7  1  0  0  0  0
  7  8  4  0  0  0  0
  8  9  4  0  0  0  0
  9 10  1  0  0  0  0
 10 11  2  0  0  0  0
 10 12  1  0  0  0  0
 12 13  1  0  0  0  0
 13 14  1  0  0  0  0
 14 15  4  0  0  0  0
 15 16  4  0  0  0  0
 16 17  4  0  0  0  0
 17 18  4  0  0  0  0
 18 19  4  0  0  0  0
 14 19  4  0  0  0  0
  9 20  4  0  0  0  0
 20 21  4  0  0  0  0
 21 22  4  0  0  0  0
 22 23  1  0  0  0  0
 22 24  4  0  0  0  0
 24 25  1  0  0  0  0
 24 26  4  0  0  0  0
 26 27  4  0  0  0  0
 20 27  4  0  0  0  0
 27 28  4  0  0  0  0
  7 28  4  0  0  0  0
  6 29  4  0  0  0  0
 29 30  4  0  0  0  0
  3 30  4  0  0  0  0
M  END
> <IC50(uM)>
3.34

> <Outcome>
0.0

> <BindingDB ID>
51311340

> <BindingDB MonomerID>
50532165

> <BindingDB Ligand Name>
CHEMBL4579382

> <Curation/DataSource>
ChEMBL

> <Article DOI>
10.1016/j.bmcl.2019.01.038

> <PMID>
30738663

> <Patent Number>
?

> <Authors>
Vyas, VK; Qureshi, G; Oza, D; Patel, H; Parmar, K; Patel, P; Ghate, MD

> <Link to Ligand in BindingDB>
http://www.bindingdb.org/bind/chemsearch/marvin/MolStructure.jsp?monomerid=50532165

> <Link to Ligand-Target Pair in BindingDB>
http://www.bindingdb.org/jsp/dbsearch/PrimarySearch_ki.jsp?energyterm=kJ/mole&tag=r21&monomerid=50532165&enzyme=Dihydroorotate+dehydrogenase&column=ki&startPg=0&Increment=50&submit=Search

> <PubChem CID>
155565603

> <PubChem SID>
440740747

$$$$

  Mrv2115 07222212352D          

 21 23  0  0  0  0            999 V2000
    4.0668    2.3479    0.0000 C   0  0  0  0  0  0  0  0  0  0  0  0
    3.3523    1.9354    0.0000 C   0  0  0  0  0  0  0  0  0  0  0  0
    3.3523    1.1104    0.0000 C   0  0  0  0  0  0  0  0  0  0  0  0
    2.6378    0.6979    0.0000 C   0  0  0  0  0  0  0  0  0  0  0  0
    2.6378   -0.1271    0.0000 O   0  0  0  0  0  0  0  0  0  0  0  0
    1.9233    1.1104    0.0000 N   0  0  0  0  0  0  0  0  0  0  0  0
    1.1387    0.8555    0.0000 N   0  0  0  0  0  0  0  0  0  0  0  0
    0.6538    1.5229    0.0000 C   0  0  0  0  0  0  0  0  0  0  0  0
   -0.1712    1.5229    0.0000 S   0  0  0  0  0  0  0  0  0  0  0  0
   -0.5837    0.8085    0.0000 C   0  0  0  0  0  0  0  0  0  0  0  0
   -1.4087    0.8085    0.0000 C   0  0  0  0  0  0  0  0  0  0  0  0
   -1.8212    0.0940    0.0000 C   0  0  0  0  0  0  0  0  0  0  0  0
   -2.6462    0.0940    0.0000 C   0  0  0  0  0  0  0  0  0  0  0  0
   -3.0587    0.8085    0.0000 C   0  0  0  0  0  0  0  0  0  0  0  0
   -3.8837    0.8085    0.0000 Cl  0  0  0  0  0  0  0  0  0  0  0  0
   -2.6462    1.5229    0.0000 C   0  0  0  0  0  0  0  0  0  0  0  0
   -3.0587    2.2374    0.0000 Cl  0  0  0  0  0  0  0  0  0  0  0  0
   -1.8212    1.5229    0.0000 C   0  0  0  0  0  0  0  0  0  0  0  0
    1.1387    2.1904    0.0000 N   0  0  0  0  0  0  0  0  0  0  0  0
    1.9233    1.9354    0.0000 C   0  0  0  0  0  0  0  0  0  0  0  0
    2.6378    2.3479    0.0000 N   0  0  0  0  0  0  0  0  0  0  0  0
  1  2  1  0  0  0  0
  2  3  4  0  0  0  0
  3  4  4  0  0  0  0
  4  5  2  0  0  0  0
  4  6  4  0  0  0  0
  6  7  4  0  0  0  0
  7  8  4  0  0  0  0
  8  9  1  0  0  0  0
  9 10  1  0  0  0  0
 10 11  1  0  0  0  0
 11 12  4  0  0  0  0
 12 13  4  0  0  0  0
 13 14  4  0  0  0  0
 14 15  1  0  0  0  0
 14 16  4  0  0  0  0
 16 17  1  0  0  0  0
 16 18  4  0  0  0  0
 11 18  4  0  0  0  0
  8 19  4  0  0  0  0
 19 20  4  0  0  0  0
  6 20  4  0  0  0  0
 20 21  4  0  0  0  0
  2 21  4  0  0  0  0
M  STY  1   1 DAT
M  SAL   1  1   7
M  SDT   1 MRV_IMPLICIT_H                                        
M  SDD   1     0.5304   -0.4125    DR    ALL  0       0  
M  SED   1 IMPL_H1
M  END
> <IC50(uM)>
6.5

> <Outcome>
0.0

> <BindingDB ID>
50970248

> <BindingDB MonomerID>
50397821

> <BindingDB Ligand Name>
CHEMBL2177856

> <Curation/DataSource>
ChEMBL

> <Article DOI>
10.1021/jm300157n

> <PMID>
22621375

> <Patent Number>
?

> <Authors>
Bedingfield, PT; Cowen, D; Acklam, P; Cunningham, F; Parsons, MR; McConkey, GA; Fishwick, CW; Johnson, AP

> <Link to Ligand in BindingDB>
http://www.bindingdb.org/bind/chemsearch/marvin/MolStructure.jsp?monomerid=50397821

> <Link to Ligand-Target Pair in BindingDB>
http://www.bindingdb.org/jsp/dbsearch/PrimarySearch_ki.jsp?energyterm=kJ/mole&tag=r21&monomerid=50397821&enzyme=Dihydroorotate+dehydrogenase&column=ki&startPg=0&Increment=50&submit=Search

> <PubChem CID>
60166483

> <PubChem SID>
163346845

$$$$

  Mrv2115 07222212352D          

 38 42  0  0  0  0            999 V2000
    8.4061   -2.3715    0.0000 C   0  0  0  0  0  0  0  0  0  0  0  0
    7.5856   -2.2852    0.0000 C   0  0  0  0  0  0  0  0  0  0  0  0
    7.2501   -1.5316    0.0000 C   0  0  0  0  0  0  0  0  0  0  0  0
    6.4431   -1.3600    0.0000 N   0  0  0  0  0  0  0  0  0  0  0  0
    6.3569   -0.5396    0.0000 N   0  0  0  0  0  0  0  0  0  0  0  0
    5.6424   -0.1271    0.0000 C   0  0  0  0  0  0  0  0  0  0  0  0
    4.9279   -0.5396    0.0000 C   0  0  0  0  0  0  0  0  0  0  0  0
    4.2135   -0.1271    0.0000 C   0  0  0  0  0  0  0  0  0  0  0  0
    3.4990   -0.5396    0.0000 O   0  0  0  0  0  0  0  0  0  0  0  0
    3.4990   -1.3646    0.0000 C   0  0  0  0  0  0  0  0  0  0  0  0
    4.2135   -1.7771    0.0000 C   0  0  0  0  0  0  0  0  0  0  0  0
    2.7845   -1.7771    0.0000 C   0  0  0  0  0  0  0  0  0  0  0  0
    2.7845   -2.6021    0.0000 C   0  0  0  0  0  0  0  0  0  0  0  0
    2.0701   -3.0146    0.0000 C   0  0  0  0  0  0  0  0  0  0  0  0
    1.3556   -2.6021    0.0000 C   0  0  0  0  0  0  0  0  0  0  0  0
    1.3556   -1.7771    0.0000 C   0  0  0  0  0  0  0  0  0  0  0  0
    2.0701   -1.3646    0.0000 C   0  0  0  0  0  0  0  0  0  0  0  0
    4.2135    0.6979    0.0000 C   0  0  0  0  0  0  0  0  0  0  0  0
    3.4990    1.1104    0.0000 C   0  0  0  0  0  0  0  0  0  0  0  0
    3.4990    1.9354    0.0000 O   0  0  0  0  0  0  0  0  0  0  0  0
    2.7845    0.6979    0.0000 N   0  0  0  0  0  0  0  0  0  0  0  0
    2.0701    1.1104    0.0000 C   0  0  0  0  0  0  0  0  0  0  0  0
    1.3556    0.6979    0.0000 C   0  0  0  0  0  0  0  0  0  0  0  0
    0.6411    1.1104    0.0000 C   0  0  0  0  0  0  0  0  0  0  0  0
   -0.1435    0.8555    0.0000 C   0  0  0  0  0  0  0  0  0  0  0  0
   -0.6284    1.5229    0.0000 N   0  0  0  0  0  0  0  0  0  0  0  0
   -0.1435    2.1904    0.0000 N   0  0  0  0  0  0  0  0  0  0  0  0
    0.6411    1.9354    0.0000 C   0  0  0  0  0  0  0  0  0  0  0  0
    1.3556    2.3479    0.0000 C   0  0  0  0  0  0  0  0  0  0  0  0
    2.0701    1.9354    0.0000 C   0  0  0  0  0  0  0  0  0  0  0  0
    2.7845    2.3479    0.0000 C   0  0  0  0  0  0  0  0  0  0  0  0
    4.9279    1.1104    0.0000 C   0  0  0  0  0  0  0  0  0  0  0  0
    5.6424    0.6979    0.0000 C   0  0  0  0  0  0  0  0  0  0  0  0
    6.3569    1.1104    0.0000 F   0  0  0  0  0  0  0  0  0  0  0  0
    7.1106   -0.2040    0.0000 C   0  0  0  0  0  0  0  0  0  0  0  0
    7.2821    0.6030    0.0000 O   0  0  0  0  0  0  0  0  0  0  0  0
    7.6626   -0.8171    0.0000 N   0  0  0  0  0  0  0  0  0  0  0  0
    8.4831   -0.7309    0.0000 C   0  0  0  0  0  0  0  0  0  0  0  0
  1  2  1  0  0  0  0
  2  3  1  0  0  0  0
  3  4  4  0  0  0  0
  4  5  4  0  0  0  0
  5  6  1  0  0  0  0
  6  7  4  0  0  0  0
  7  8  4  0  0  0  0
  8  9  1  0  0  0  0
  9 10  1  0  0  0  0
 10 11  1  0  0  0  0
 10 12  1  0  0  0  0
 12 13  4  0  0  0  0
 13 14  4  0  0  0  0
 14 15  4  0  0  0  0
 15 16  4  0  0  0  0
 16 17  4  0  0  0  0
 12 17  4  0  0  0  0
  8 18  4  0  0  0  0
 18 19  1  0  0  0  0
 19 20  2  0  0  0  0
 19 21  1  0  0  0  0
 21 22  1  0  0  0  0
 22 23  4  0  0  0  0
 23 24  4  0  0  0  0
 24 25  4  0  0  0  0
 25 26  4  0  0  0  0
 26 27  4  0  0  0  0
 27 28  4  0  0  0  0
 24 28  4  0  0  0  0
 28 29  4  0  0  0  0
 29 30  4  0  0  0  0
 22 30  4  0  0  0  0
 30 31  1  0  0  0  0
 18 32  4  0  0  0  0
 32 33  4  0  0  0  0
  6 33  4  0  0  0  0
 33 34  1  0  0  0  0
  5 35  4  0  0  0  0
 35 36  2  0  0  0  0
 35 37  4  0  0  0  0
  3 37  4  0  0  0  0
 37 38  1  0  0  0  0
M  STY  1   1 DAT
M  SAL   1  1  27
M  SDT   1 MRV_IMPLICIT_H                                        
M  SDD   1     0.5304   -0.4125    DR    ALL  0       0  
M  SED   1 IMPL_H1
M  END
> <IC50(uM)>
0.065

> <Outcome>
1.0

> <BindingDB ID>
1098822; 972668

> <BindingDB MonomerID>
470546

> <BindingDB Ligand Name>
4-(3-ethyl-4-methyl-5-oxo-4,5-dihydro-1H-1,2,4-triazol-1-yl)-5-fluoro-N-(6-methyl-1H-indazol-5-yl)-2-[(1S)-1-phenylethoxy]benzamide::US10815215, Example 206::US11130745, Example 206; 4-(3-ethyl-4-methyl-5-oxo-4,5-dihydro-1H-1,2,4-triazol-1-yl)-5-fluoro-N-(6-methyl-1H-indazol-5-yl)-2-[(1S)-1-phenylethoxy]benzamide::US10815215, Example 206

> <Curation/DataSource>
US Patent

> <Article DOI>
?

> <PMID>
?

> <Patent Number>
US11130745; US10815215

> <Authors>
Gradl, SN; Nguyen, D; Eis, K; Gunther, J; Stellfeld, T; Janzer, A; Christian, S; Muller, T; Sheikh, SE; Sykes, DB; Ferrara, SJ; Krober, M; Merz, C; Niehues, M; Schafer, M; Zimmermann, K; Nising, CF; Gradl, SN; Nguyen, D; Eis, K; Gunther, J; Stellfeld, T; Janzer, A; Christian, S; Muller, T; Sheikh, SE; Zhou, HJ; Zhao, C; Sykes, DB; Ferrara, SJ; Liu, K; Krober, M; Merz, C; Niehues, M; Schafer, M; Zimmermann, K; Nising, CF

> <Link to Ligand in BindingDB>
http://www.bindingdb.org/bind/chemsearch/marvin/MolStructure.jsp?monomerid=470546

> <Link to Ligand-Target Pair in BindingDB>
http://www.bindingdb.org/jsp/dbsearch/PrimarySearch_ki.jsp?energyterm=kJ/mole&tag=r21&monomerid=470546&enzyme=Dihydroorotate+dehydrogenase&column=ki&startPg=0&Increment=50&submit=Search

> <PubChem CID>
134469961

> <PubChem SID>
441609722

$$$$

  Mrv2115 07222212352D          

 22 24  0  0  0  0            999 V2000
   -1.4289   -2.4750    0.0000 C   0  0  0  0  0  0  0  0  0  0  0  0
   -1.4289   -1.6500    0.0000 C   0  0  0  0  0  0  0  0  0  0  0  0
   -2.1434   -1.2375    0.0000 C   0  0  0  0  0  0  0  0  0  0  0  0
   -2.1434   -0.4125    0.0000 C   0  0  0  0  0  0  0  0  0  0  0  0
   -1.4289    0.0000    0.0000 C   0  0  0  0  0  0  0  0  0  0  0  0
   -0.7145   -0.4125    0.0000 C   0  0  0  0  0  0  0  0  0  0  0  0
    0.0000   -0.0000    0.0000 C   0  0  0  0  0  0  0  0  0  0  0  0
   -0.7145   -1.2375    0.0000 C   0  0  0  0  0  0  0  0  0  0  0  0
    0.0000   -1.6500    0.0000 N   0  0  0  0  0  0  0  0  0  0  0  0
    0.7145   -1.2375    0.0000 C   0  0  0  0  0  0  0  0  0  0  0  0
    0.7145   -0.4125    0.0000 C   0  0  0  0  0  0  0  0  0  0  0  0
    0.3789    0.3412    0.0000 O   0  0  0  0  0  0  0  0  0  0  0  0
    1.4289    0.0000    0.0000 C   0  0  0  0  0  0  0  0  0  0  0  0
    1.4289    0.8250    0.0000 O   0  0  0  0  0  0  0  0  0  0  0  0
    2.1434   -0.4125    0.0000 C   0  0  0  0  0  0  0  0  0  0  0  0
    2.8579    0.0000    0.0000 C   0  0  0  0  0  0  0  0  0  0  0  0
    3.5724   -0.4125    0.0000 C   0  0  0  0  0  0  0  0  0  0  0  0
    3.5724   -1.2375    0.0000 C   0  0  0  0  0  0  0  0  0  0  0  0
    2.8579   -1.6500    0.0000 C   0  0  0  0  0  0  0  0  0  0  0  0
    2.1434   -1.2375    0.0000 C   0  0  0  0  0  0  0  0  0  0  0  0
    1.4289   -1.6500    0.0000 C   0  0  0  0  0  0  0  0  0  0  0  0
    1.4289   -2.4750    0.0000 O   0  0  0  0  0  0  0  0  0  0  0  0
  1  2  1  0  0  0  0
  2  3  4  0  0  0  0
  3  4  4  0  0  0  0
  4  5  4  0  0  0  0
  5  6  4  0  0  0  0
  6  7  1  0  0  0  0
  6  8  4  0  0  0  0
  2  8  4  0  0  0  0
  8  9  1  0  0  0  0
  9 10  1  0  0  0  0
 10 11  2  0  0  0  0
 11 12  1  0  0  0  0
 11 13  1  0  0  0  0
 13 14  2  0  0  0  0
 13 15  1  0  0  0  0
 15 16  4  0  0  0  0
 16 17  4  0  0  0  0
 17 18  4  0  0  0  0
 18 19  4  0  0  0  0
 19 20  4  0  0  0  0
 15 20  4  0  0  0  0
 20 21  1  0  0  0  0
 10 21  1  0  0  0  0
 21 22  2  0  0  0  0
M  END
> <IC50(uM)>
10.0

> <Outcome>
0.0

> <BindingDB ID>
51282869

> <BindingDB MonomerID>
50523220

> <BindingDB Ligand Name>
CHEMBL2408379

> <Curation/DataSource>
ChEMBL

> <Article DOI>
10.1016/j.ejmech.2019.02.018

> <PMID>
30776695

> <Patent Number>
?

> <Authors>
Calil, FA; David, JS; Chiappetta, ERC; Fumagalli, F; Mello, RB; Leite, FHA; Castilho, MS; Emery, FS; Nonato, MC

> <Link to Ligand in BindingDB>
http://www.bindingdb.org/bind/chemsearch/marvin/MolStructure.jsp?monomerid=50523220

> <Link to Ligand-Target Pair in BindingDB>
http://www.bindingdb.org/jsp/dbsearch/PrimarySearch_ki.jsp?energyterm=kJ/mole&tag=r21&monomerid=50523220&enzyme=Dihydroorotate+dehydrogenase&column=ki&startPg=0&Increment=50&submit=Search

> <PubChem CID>
71812412

> <PubChem SID>
440731802

$$$$

  Mrv2115 07222212352D          

 26 28  0  0  0  0            999 V2000
   -1.4289   12.1286    0.0000 C   0  0  0  0  0  0  0  0  0  0  0  0
   -0.7145   11.7161    0.0000 O   0  0  0  0  0  0  0  0  0  0  0  0
   -0.7145   10.8911    0.0000 C   0  0  0  0  0  0  0  0  0  0  0  0
   -0.0000   10.4786    0.0000 C   0  0  0  0  0  0  0  0  0  0  0  0
   -0.0000    9.6536    0.0000 C   0  0  0  0  0  0  0  0  0  0  0  0
   -0.7145    9.2411    0.0000 C   0  0  0  0  0  0  0  0  0  0  0  0
   -0.7145    8.4161    0.0000 C   0  0  0  0  0  0  0  0  0  0  0  0
   -0.0000    8.0036    0.0000 C   0  0  0  0  0  0  0  0  0  0  0  0
   -0.0000    7.1786    0.0000 C   0  0  0  0  0  0  0  0  0  0  0  0
   -0.7145    6.7661    0.0000 C   0  0  0  0  0  0  0  0  0  0  0  0
   -0.7145    5.9411    0.0000 N   0  0  0  0  0  0  0  0  0  0  0  0
   -0.0000    5.5286    0.0000 C   0  0  0  0  0  0  0  0  0  0  0  0
    0.7145    5.9411    0.0000 O   0  0  0  0  0  0  0  0  0  0  0  0
   -0.0000    4.7036    0.0000 C   0  0  0  0  0  0  0  0  0  0  0  0
    0.6674    4.2187    0.0000 C   0  0  0  0  0  0  0  0  0  0  0  0
    1.4521    4.4736    0.0000 C   0  0  0  0  0  0  0  0  0  0  0  0
    1.6236    5.2806    0.0000 O   0  0  0  0  0  0  0  0  0  0  0  0
    2.0652    3.9216    0.0000 O   0  0  0  0  0  0  0  0  0  0  0  0
    0.4125    3.4340    0.0000 C   0  0  0  0  0  0  0  0  0  0  0  0
   -0.4125    3.4340    0.0000 C   0  0  0  0  0  0  0  0  0  0  0  0
   -0.6674    4.2187    0.0000 C   0  0  0  0  0  0  0  0  0  0  0  0
   -1.4289    7.1786    0.0000 C   0  0  0  0  0  0  0  0  0  0  0  0
   -2.1434    6.7661    0.0000 F   0  0  0  0  0  0  0  0  0  0  0  0
   -1.4289    8.0036    0.0000 C   0  0  0  0  0  0  0  0  0  0  0  0
   -1.4289    9.6536    0.0000 C   0  0  0  0  0  0  0  0  0  0  0  0
   -1.4289   10.4786    0.0000 C   0  0  0  0  0  0  0  0  0  0  0  0
  1  2  1  0  0  0  0
  2  3  1  0  0  0  0
  3  4  4  0  0  0  0
  4  5  4  0  0  0  0
  5  6  4  0  0  0  0
  6  7  1  0  0  0  0
  7  8  4  0  0  0  0
  8  9  4  0  0  0  0
  9 10  4  0  0  0  0
 10 11  1  0  0  0  0
 11 12  1  0  0  0  0
 12 13  2  0  0  0  0
 12 14  1  0  0  0  0
 14 15  2  0  0  0  0
 15 16  1  0  0  0  0
 16 17  2  0  0  0  0
 16 18  1  0  0  0  0
 15 19  1  0  0  0  0
 19 20  1  0  0  0  0
 20 21  1  0  0  0  0
 14 21  1  0  0  0  0
 10 22  4  0  0  0  0
 22 23  1  0  0  0  0
 22 24  4  0  0  0  0
  7 24  4  0  0  0  0
  6 25  4  0  0  0  0
 25 26  4  0  0  0  0
  3 26  4  0  0  0  0
M  END
> <IC50(uM)>
1.7

> <Outcome>
0.0

> <BindingDB ID>
50251705

> <BindingDB MonomerID>
50137290

> <BindingDB Ligand Name>
2-(3-Fluoro-4'-methoxy-biphenyl-4-ylcarbamoyl)-cyclopent-1-enecarboxylic acid::CHEMBL347148

> <Curation/DataSource>
ChEMBL

> <Article DOI>
10.1016/j.bmcl.2003.10.021

> <PMID>
14684297

> <Patent Number>
?

> <Authors>
Leban, J; Saeb, W; Garcia, G; Baumgartner, R; Kramer, B

> <Link to Ligand in BindingDB>
http://www.bindingdb.org/bind/chemsearch/marvin/MolStructure.jsp?monomerid=50137290

> <Link to Ligand-Target Pair in BindingDB>
http://www.bindingdb.org/jsp/dbsearch/PrimarySearch_ki.jsp?energyterm=kJ/mole&tag=r21&monomerid=50137290&enzyme=Dihydroorotate+dehydrogenase&column=ki&startPg=0&Increment=50&submit=Search

> <PubChem CID>
21084760

> <PubChem SID>
104027456

$$$$

  Mrv2115 07222212352D          

 28 30  0  0  0  0            999 V2000
    0.0000   -2.4750    0.0000 N   0  0  0  0  0  0  0  0  0  0  0  0
    0.0000   -1.6500    0.0000 C   0  0  0  0  0  0  0  0  0  0  0  0
   -0.7145   -1.2375    0.0000 O   0  0  0  0  0  0  0  0  0  0  0  0
    0.7145   -1.2375    0.0000 C   0  0  0  0  0  0  0  0  0  0  0  0
    0.7145   -0.4125    0.0000 C   0  0  0  0  0  0  0  0  0  0  0  0
    1.4289    0.0000    0.0000 C   0  0  0  0  0  0  0  0  0  0  0  0
    1.4289    0.8250    0.0000 F   0  0  0  0  0  0  0  0  0  0  0  0
    2.1434   -0.4125    0.0000 C   0  0  0  0  0  0  0  0  0  0  0  0
    2.8579    0.0000    0.0000 F   0  0  0  0  0  0  0  0  0  0  0  0
    2.1434   -1.2375    0.0000 C   0  0  0  0  0  0  0  0  0  0  0  0
    1.4289   -1.6500    0.0000 C   0  0  0  0  0  0  0  0  0  0  0  0
    1.4289   -2.4750    0.0000 N   0  0  0  0  0  0  0  0  0  0  0  0
    2.0964   -2.9599    0.0000 C   0  0  0  0  0  0  0  0  0  0  0  0
    1.8414   -3.7445    0.0000 C   0  0  0  0  0  0  0  0  0  0  0  0
    2.3264   -4.4120    0.0000 C   0  0  0  0  0  0  0  0  0  0  0  0
    3.1468   -4.3257    0.0000 O   0  0  0  0  0  0  0  0  0  0  0  0
    3.6318   -4.9932    0.0000 C   0  0  0  0  0  0  0  0  0  0  0  0
    4.4522   -4.9070    0.0000 C   0  0  0  0  0  0  0  0  0  0  0  0
    4.9372   -5.5744    0.0000 C   0  0  0  0  0  0  0  0  0  0  0  0
    4.6016   -6.3281    0.0000 C   0  0  0  0  0  0  0  0  0  0  0  0
    5.0865   -6.9955    0.0000 C   0  0  0  0  0  0  0  0  0  0  0  0
    5.5715   -7.6629    0.0000 F   0  0  0  0  0  0  0  0  0  0  0  0
    4.4191   -7.4804    0.0000 F   0  0  0  0  0  0  0  0  0  0  0  0
    5.7540   -6.5106    0.0000 F   0  0  0  0  0  0  0  0  0  0  0  0
    3.7811   -6.4143    0.0000 C   0  0  0  0  0  0  0  0  0  0  0  0
    3.2962   -5.7469    0.0000 C   0  0  0  0  0  0  0  0  0  0  0  0
    1.0164   -3.7445    0.0000 N   0  0  0  0  0  0  0  0  0  0  0  0
    0.7615   -2.9599    0.0000 N   0  0  0  0  0  0  0  0  0  0  0  0
  1  2  1  0  0  0  0
  2  3  2  0  0  0  0
  2  4  1  0  0  0  0
  4  5  4  0  0  0  0
  5  6  4  0  0  0  0
  6  7  1  0  0  0  0
  6  8  4  0  0  0  0
  8  9  1  0  0  0  0
  8 10  4  0  0  0  0
 10 11  4  0  0  0  0
  4 11  4  0  0  0  0
 11 12  1  0  0  0  0
 12 13  4  0  0  0  0
 13 14  4  0  0  0  0
 14 15  1  0  0  0  0
 15 16  1  0  0  0  0
 16 17  1  0  0  0  0
 17 18  4  0  0  0  0
 18 19  4  0  0  0  0
 19 20  4  0  0  0  0
 20 21  1  0  0  0  0
 21 22  1  0  0  0  0
 21 23  1  0  0  0  0
 21 24  1  0  0  0  0
 20 25  4  0  0  0  0
 25 26  4  0  0  0  0
 17 26  4  0  0  0  0
 14 27  4  0  0  0  0
 27 28  4  0  0  0  0
 12 28  4  0  0  0  0
M  END
> <IC50(uM)>
2.1

> <Outcome>
0.0

> <BindingDB ID>
51278897

> <BindingDB MonomerID>
50521862

> <BindingDB Ligand Name>
CHEMBL4458697

> <Curation/DataSource>
ChEMBL

> <Article DOI>
10.1016/j.bmc.2019.07.005

> <PMID>
31300317

> <Patent Number>
?

> <Authors>
Bozorov, K; Zhao, J; Aisa, HA

> <Link to Ligand in BindingDB>
http://www.bindingdb.org/bind/chemsearch/marvin/MolStructure.jsp?monomerid=50521862

> <Link to Ligand-Target Pair in BindingDB>
http://www.bindingdb.org/jsp/dbsearch/PrimarySearch_ki.jsp?energyterm=kJ/mole&tag=r21&monomerid=50521862&enzyme=Dihydroorotate+dehydrogenase&column=ki&startPg=0&Increment=50&submit=Search

> <PubChem CID>
155526511

> <PubChem SID>
440730444

$$$$

  Mrv2115 07222212352D          

 23 25  0  0  0  0            999 V2000
   -1.4289   -2.4750    0.0000 O   0  0  0  0  0  0  0  0  0  0  0  0
   -1.4289   -1.6500    0.0000 C   0  0  0  0  0  0  0  0  0  0  0  0
   -0.7145   -1.2375    0.0000 N   0  0  0  0  0  0  0  0  0  0  0  0
    0.0000   -1.6500    0.0000 C   0  0  0  0  0  0  0  0  0  0  0  0
    0.7145   -1.2375    0.0000 C   0  0  0  0  0  0  0  0  0  0  0  0
    1.4289   -1.6500    0.0000 C   0  0  0  0  0  0  0  0  0  0  0  0
    2.1434   -1.2375    0.0000 C   0  0  0  0  0  0  0  0  0  0  0  0
    2.8579   -1.6500    0.0000 C   0  0  0  0  0  0  0  0  0  0  0  0
    2.8579   -2.4750    0.0000 C   0  0  0  0  0  0  0  0  0  0  0  0
    2.1434   -2.8875    0.0000 C   0  0  0  0  0  0  0  0  0  0  0  0
    1.4289   -2.4750    0.0000 C   0  0  0  0  0  0  0  0  0  0  0  0
    0.7145   -0.4125    0.0000 C   0  0  0  0  0  0  0  0  0  0  0  0
    0.0000   -0.0000    0.0000 C   0  0  0  0  0  0  0  0  0  0  0  0
    0.0000    0.8250    0.0000 C   0  0  0  0  0  0  0  0  0  0  0  0
    0.7145    1.2375    0.0000 C   0  0  0  0  0  0  0  0  0  0  0  0
    1.4289    0.8250    0.0000 C   0  0  0  0  0  0  0  0  0  0  0  0
    1.4289   -0.0000    0.0000 C   0  0  0  0  0  0  0  0  0  0  0  0
   -2.1434   -1.2375    0.0000 C   0  0  0  0  0  0  0  0  0  0  0  0
   -2.8971   -1.5731    0.0000 N   0  0  0  0  0  0  0  0  0  0  0  0
   -3.4491   -0.9600    0.0000 S   0  0  0  0  0  0  0  0  0  0  0  0
   -3.0366   -0.2455    0.0000 N   0  0  0  0  0  0  0  0  0  0  0  0
   -2.2296   -0.4170    0.0000 C   0  0  0  0  0  0  0  0  0  0  0  0
   -1.6166    0.1350    0.0000 O   0  0  0  0  0  0  0  0  0  0  0  0
  1  2  2  0  0  0  0
  2  3  1  0  0  0  0
  3  4  1  0  0  0  0
  4  5  1  0  0  0  0
  5  6  1  0  0  0  0
  6  7  4  0  0  0  0
  7  8  4  0  0  0  0
  8  9  4  0  0  0  0
  9 10  4  0  0  0  0
 10 11  4  0  0  0  0
  6 11  4  0  0  0  0
  5 12  1  0  0  0  0
 12 13  4  0  0  0  0
 13 14  4  0  0  0  0
 14 15  4  0  0  0  0
 15 16  4  0  0  0  0
 16 17  4  0  0  0  0
 12 17  4  0  0  0  0
  2 18  1  0  0  0  0
 18 19  4  0  0  0  0
 19 20  4  0  0  0  0
 20 21  4  0  0  0  0
 21 22  4  0  0  0  0
 18 22  4  0  0  0  0
 22 23  1  0  0  0  0
M  END
> <IC50(uM)>
200.0

> <Outcome>
0.0

> <BindingDB ID>
51241006

> <BindingDB MonomerID>
50507745

> <BindingDB Ligand Name>
CHEMBL4517934

> <Curation/DataSource>
ChEMBL

> <Article DOI>
10.1016/j.ejmech.2018.11.044

> <PMID>
30529545

> <Patent Number>
?

> <Authors>
Pippione, AC; Sainas, S; Goyal, P; Fritzson, I; Cassiano, GC; Giraudo, A; Giorgis, M; Tavella, TA; Bagnati, R; Rolando, B; Caing-Carlsson, R; Costa, FTM; Andrade, CH; Al-Karadaghi, S; Boschi, D; Friemann, R; Lolli, ML

> <Link to Ligand in BindingDB>
http://www.bindingdb.org/bind/chemsearch/marvin/MolStructure.jsp?monomerid=50507745

> <Link to Ligand-Target Pair in BindingDB>
http://www.bindingdb.org/jsp/dbsearch/PrimarySearch_ki.jsp?energyterm=kJ/mole&tag=r21&monomerid=50507745&enzyme=Dihydroorotate+dehydrogenase&column=ki&startPg=0&Increment=50&submit=Search

> <PubChem CID>
135393504

> <PubChem SID>
440716330

$$$$

  Mrv2115 07222212352D          

 27 30  0  0  0  0            999 V2000
    6.2102    6.0604    0.0000 C   0  0  0  0  0  0  0  0  0  0  0  0
    5.4957    5.6479    0.0000 O   0  0  0  0  0  0  0  0  0  0  0  0
    4.7812    6.0604    0.0000 C   0  0  0  0  0  0  0  0  0  0  0  0
    4.7812    6.8854    0.0000 C   0  0  0  0  0  0  0  0  0  0  0  0
    4.0668    7.2979    0.0000 C   0  0  0  0  0  0  0  0  0  0  0  0
    3.3523    6.8854    0.0000 C   0  0  0  0  0  0  0  0  0  0  0  0
    3.3523    6.0604    0.0000 C   0  0  0  0  0  0  0  0  0  0  0  0
    4.0668    5.6479    0.0000 C   0  0  0  0  0  0  0  0  0  0  0  0
    2.6378    5.6479    0.0000 C   0  0  0  0  0  0  0  0  0  0  0  0
    1.9233    6.0604    0.0000 C   0  0  0  0  0  0  0  0  0  0  0  0
    1.2089    5.6479    0.0000 N   0  0  0  0  0  0  0  0  0  0  0  0
    1.2089    4.8229    0.0000 C   0  0  0  0  0  0  0  0  0  0  0  0
    1.9233    4.4104    0.0000 C   0  0  0  0  0  0  0  0  0  0  0  0
    1.9233    3.5854    0.0000 C   0  0  0  0  0  0  0  0  0  0  0  0
    2.6378    3.1729    0.0000 C   0  0  0  0  0  0  0  0  0  0  0  0
    1.2089    3.1729    0.0000 N   0  0  0  0  0  0  0  0  0  0  0  0
    0.4944    3.5854    0.0000 C   0  0  0  0  0  0  0  0  0  0  0  0
   -0.2902    3.3305    0.0000 N   0  0  0  0  0  0  0  0  0  0  0  0
   -0.7751    3.9979    0.0000 C   0  0  0  0  0  0  0  0  0  0  0  0
   -1.6001    3.9979    0.0000 C   0  0  0  0  0  0  0  0  0  0  0  0
   -2.4251    3.9979    0.0000 C   0  0  0  0  0  0  0  0  0  0  0  0
   -1.6001    4.8229    0.0000 F   0  0  0  0  0  0  0  0  0  0  0  0
   -1.6001    3.1729    0.0000 F   0  0  0  0  0  0  0  0  0  0  0  0
   -0.2902    4.6654    0.0000 N   0  0  0  0  0  0  0  0  0  0  0  0
    0.4944    4.4104    0.0000 N   0  0  0  0  0  0  0  0  0  0  0  0
    1.9233    6.8854    0.0000 C   0  0  0  0  0  0  0  0  0  0  0  0
    2.6378    7.2979    0.0000 C   0  0  0  0  0  0  0  0  0  0  0  0
  1  2  1  0  0  0  0
  2  3  1  0  0  0  0
  3  4  4  0  0  0  0
  4  5  4  0  0  0  0
  5  6  4  0  0  0  0
  6  7  4  0  0  0  0
  7  8  4  0  0  0  0
  3  8  4  0  0  0  0
  7  9  1  0  0  0  0
  9 10  1  0  0  0  0
 10 11  1  0  0  0  0
 11 12  1  0  0  0  0
 12 13  4  0  0  0  0
 13 14  4  0  0  0  0
 14 15  1  0  0  0  0
 14 16  4  0  0  0  0
 16 17  4  0  0  0  0
 17 18  4  0  0  0  0
 18 19  4  0  0  0  0
 19 20  1  0  0  0  0
 20 21  1  0  0  0  0
 20 22  1  0  0  0  0
 20 23  1  0  0  0  0
 19 24  4  0  0  0  0
 24 25  4  0  0  0  0
 12 25  4  0  0  0  0
 17 25  4  0  0  0  0
 10 26  1  0  0  0  0
 26 27  1  0  0  0  0
  6 27  1  0  0  0  0
M  END
> <IC50(uM)>
100.0

> <Outcome>
0.0

> <BindingDB ID>
51373004

> <BindingDB MonomerID>
50555372

> <BindingDB Ligand Name>
CHEMBL4744317

> <Curation/DataSource>
ChEMBL

> <Article DOI>
?

> <PMID>
27127993

> <Patent Number>
?

> <Authors>
Kokkonda, S; Deng, X; White, KL; Coteron, JM; Marco, M; de Las Heras, L; White, J; El Mazouni, F; Tomchick, DR; Manjalanagara, K; Rudra, KR; Chen, G; Morizzi, J; Ryan, E; Kaminsky, W; Leroy, D; Mart??nez-Mart??nez, MS; Jimenez-Diaz, MB; Bazaga, SF; Angulo-Barturen, I; Waterson, D; Burrows, JN; Matthews, D; Charman, SA; Phillips, MA; Rathod, PK

> <Link to Ligand in BindingDB>
http://www.bindingdb.org/bind/chemsearch/marvin/MolStructure.jsp?monomerid=50555372

> <Link to Ligand-Target Pair in BindingDB>
http://www.bindingdb.org/jsp/dbsearch/PrimarySearch_ki.jsp?energyterm=kJ/mole&tag=r21&monomerid=50555372&enzyme=Dihydroorotate+dehydrogenase&column=ki&startPg=0&Increment=50&submit=Search

> <PubChem CID>
162648231

> <PubChem SID>
461694140

$$$$

  Mrv2115 07222212352D          

 37 41  0  0  0  0            999 V2000
   -8.0534   -2.1269    0.0000 C   0  0  0  0  0  0  0  0  0  0  0  0
   -7.6409   -1.4124    0.0000 O   0  0  0  0  0  0  0  0  0  0  0  0
   -6.8159   -1.4124    0.0000 C   0  0  0  0  0  0  0  0  0  0  0  0
   -6.4034   -0.6979    0.0000 N   0  0  0  0  0  0  0  0  0  0  0  0
   -5.5784   -0.6979    0.0000 C   0  0  0  0  0  0  0  0  0  0  0  0
   -5.1659   -1.4124    0.0000 C   0  0  0  0  0  0  0  0  0  0  0  0
   -4.3409   -1.4124    0.0000 N   0  0  0  0  0  0  0  0  0  0  0  0
   -3.9284   -0.6979    0.0000 C   0  0  0  0  0  0  0  0  0  0  0  0
   -4.3409    0.0165    0.0000 O   0  0  0  0  0  0  0  0  0  0  0  0
   -3.1034   -0.6979    0.0000 C   0  0  0  0  0  0  0  0  0  0  0  0
   -2.6909    0.0165    0.0000 C   0  0  0  0  0  0  0  0  0  0  0  0
   -1.8659    0.0165    0.0000 C   0  0  0  0  0  0  0  0  0  0  0  0
   -1.4534    0.7310    0.0000 F   0  0  0  0  0  0  0  0  0  0  0  0
   -1.4534   -0.6979    0.0000 C   0  0  0  0  0  0  0  0  0  0  0  0
   -0.6284   -0.6979    0.0000 N   0  0  0  0  0  0  0  0  0  0  0  0
   -0.1435   -1.3654    0.0000 N   0  0  0  0  0  0  0  0  0  0  0  0
    0.6411   -1.1104    0.0000 C   0  0  0  0  0  0  0  0  0  0  0  0
    0.6411   -0.2854    0.0000 N   0  0  0  0  0  0  0  0  0  0  0  0
   -0.1435   -0.0305    0.0000 C   0  0  0  0  0  0  0  0  0  0  0  0
   -0.3984    0.7541    0.0000 O   0  0  0  0  0  0  0  0  0  0  0  0
    1.3556    0.1271    0.0000 C   0  0  0  0  0  0  0  0  0  0  0  0
    2.0701   -0.2854    0.0000 C   0  0  0  0  0  0  0  0  0  0  0  0
    2.0701   -1.1104    0.0000 C   0  0  0  0  0  0  0  0  0  0  0  0
    1.3556   -1.5229    0.0000 C   0  0  0  0  0  0  0  0  0  0  0  0
   -1.8659   -1.4124    0.0000 C   0  0  0  0  0  0  0  0  0  0  0  0
   -2.6909   -1.4124    0.0000 C   0  0  0  0  0  0  0  0  0  0  0  0
   -3.1034   -2.1269    0.0000 O   0  0  0  0  0  0  0  0  0  0  0  0
   -2.6909   -2.8414    0.0000 C   0  0  0  0  0  0  0  0  0  0  0  0
   -1.8659   -2.8414    0.0000 C   0  0  0  0  0  0  0  0  0  0  0  0
   -3.1034   -3.5558    0.0000 C   0  0  0  0  0  0  0  0  0  0  0  0
   -2.6909   -4.2703    0.0000 C   0  0  0  0  0  0  0  0  0  0  0  0
   -3.1034   -4.9848    0.0000 C   0  0  0  0  0  0  0  0  0  0  0  0
   -3.9284   -4.9848    0.0000 C   0  0  0  0  0  0  0  0  0  0  0  0
   -4.3409   -4.2703    0.0000 C   0  0  0  0  0  0  0  0  0  0  0  0
   -3.9284   -3.5558    0.0000 C   0  0  0  0  0  0  0  0  0  0  0  0
   -5.5784   -2.1269    0.0000 C   0  0  0  0  0  0  0  0  0  0  0  0
   -6.4034   -2.1269    0.0000 N   0  0  0  0  0  0  0  0  0  0  0  0
  1  2  1  0  0  0  0
  2  3  1  0  0  0  0
  3  4  4  0  0  0  0
  4  5  4  0  0  0  0
  5  6  4  0  0  0  0
  6  7  1  0  0  0  0
  7  8  1  0  0  0  0
  8  9  2  0  0  0  0
  8 10  1  0  0  0  0
 10 11  4  0  0  0  0
 11 12  4  0  0  0  0
 12 13  1  0  0  0  0
 12 14  4  0  0  0  0
 14 15  1  0  0  0  0
 15 16  4  0  0  0  0
 16 17  4  0  0  0  0
 17 18  4  0  0  0  0
 18 19  4  0  0  0  0
 15 19  4  0  0  0  0
 19 20  2  0  0  0  0
 18 21  1  0  0  0  0
 21 22  1  0  0  0  0
 22 23  1  0  0  0  0
 23 24  1  0  0  0  0
 17 24  1  0  0  0  0
 14 25  4  0  0  0  0
 25 26  4  0  0  0  0
 10 26  4  0  0  0  0
 26 27  1  0  0  0  0
 27 28  1  0  0  0  0
 28 29  1  0  0  0  0
 28 30  1  0  0  0  0
 30 31  1  0  0  0  0
 31 32  1  0  0  0  0
 32 33  1  0  0  0  0
 33 34  1  0  0  0  0
 34 35  1  0  0  0  0
 30 35  1  0  0  0  0
  6 36  4  0  0  0  0
 36 37  4  0  0  0  0
  3 37  4  0  0  0  0
M  END
> <IC50(uM)>
0.23

> <Outcome>
1.0

> <BindingDB ID>
1020508

> <BindingDB MonomerID>
490456

> <BindingDB Ligand Name>
2-[(1S)-1-cyclohexylethoxy]-5-fluoro-N-(2-methoxypyrimidin-5-yl)-4-(3-oxo-5,6,7,8-tetrahydro[1,2,4]triazolo[4,3-a]pyridin-2(3H)-yl)benzamide::US10968216, Example 124

> <Curation/DataSource>
US Patent

> <Article DOI>
?

> <PMID>
?

> <Patent Number>
US10968216

> <Authors>
Gradl, SN; Nguyen, D; Eis, K; Gunther, J; Stellfeld, T; Janzer, A; Christian, S; Mueller, T; Sheikh, SE; Zhou, HJ; Zhao, C; Sykes, DB; Ferrara, SJ; Liu, K; Herbert, SA; Merz, C; Niehues, M; Nising, CF; Schafer, M; Zimmermann, K; Knablein, J; Thede, K; Faupel, T

> <Link to Ligand in BindingDB>
http://www.bindingdb.org/bind/chemsearch/marvin/MolStructure.jsp?monomerid=490456

> <Link to Ligand-Target Pair in BindingDB>
http://www.bindingdb.org/jsp/dbsearch/PrimarySearch_ki.jsp?energyterm=kJ/mole&tag=r21&monomerid=490456&enzyme=Dihydroorotate+dehydrogenase&column=ki&startPg=0&Increment=50&submit=Search

> <PubChem CID>
134474312

> <PubChem SID>
447117183

$$$$

  Mrv2115 07222212352D          

 25 27  0  0  0  0            999 V2000
    0.7145   -3.7125    0.0000 O   0  0  0  0  0  0  0  0  0  0  0  0
    1.4289   -4.1250    0.0000 C   0  0  0  0  0  0  0  0  0  0  0  0
    2.1434   -3.7125    0.0000 O   0  0  0  0  0  0  0  0  0  0  0  0
    1.4289   -4.9500    0.0000 C   0  0  0  0  0  0  0  0  0  0  0  0
    2.1434   -5.3625    0.0000 N   0  0  0  0  0  0  0  0  0  0  0  0
    2.1434   -6.1875    0.0000 C   0  0  0  0  0  0  0  0  0  0  0  0
    2.8579   -6.6000    0.0000 O   0  0  0  0  0  0  0  0  0  0  0  0
    1.4289   -6.6000    0.0000 N   0  0  0  0  0  0  0  0  0  0  0  0
    0.7145   -6.1875    0.0000 C   0  0  0  0  0  0  0  0  0  0  0  0
    0.0000   -6.6000    0.0000 O   0  0  0  0  0  0  0  0  0  0  0  0
    0.7145   -5.3625    0.0000 C   0  0  0  0  0  0  0  0  0  0  0  0
    0.0000   -4.9500    0.0000 C   0  0  0  0  0  0  0  0  0  0  0  0
   -0.7145   -5.3625    0.0000 C   0  0  0  0  0  0  0  0  0  0  0  0
   -1.4289   -4.9500    0.0000 C   0  0  0  0  0  0  0  0  0  0  0  0
   -2.1434   -5.3625    0.0000 C   0  0  0  0  0  0  0  0  0  0  0  0
   -2.8579   -4.9500    0.0000 C   0  0  0  0  0  0  0  0  0  0  0  0
   -2.8579   -4.1250    0.0000 C   0  0  0  0  0  0  0  0  0  0  0  0
   -3.5724   -3.7125    0.0000 C   0  0  0  0  0  0  0  0  0  0  0  0
   -4.2868   -4.1250    0.0000 C   0  0  0  0  0  0  0  0  0  0  0  0
   -5.0013   -3.7125    0.0000 C   0  0  0  0  0  0  0  0  0  0  0  0
   -5.0013   -2.8875    0.0000 C   0  0  0  0  0  0  0  0  0  0  0  0
   -4.2868   -2.4750    0.0000 C   0  0  0  0  0  0  0  0  0  0  0  0
   -3.5724   -2.8875    0.0000 C   0  0  0  0  0  0  0  0  0  0  0  0
   -2.1434   -3.7125    0.0000 C   0  0  0  0  0  0  0  0  0  0  0  0
   -1.4289   -4.1250    0.0000 C   0  0  0  0  0  0  0  0  0  0  0  0
  1  2  2  0  0  0  0
  2  3  1  0  0  0  0
  2  4  1  0  0  0  0
  4  5  4  0  0  0  0
  5  6  4  0  0  0  0
  6  7  2  0  0  0  0
  6  8  4  0  0  0  0
  8  9  4  0  0  0  0
  9 10  2  0  0  0  0
  9 11  4  0  0  0  0
  4 11  4  0  0  0  0
 11 12  1  0  0  0  0
 12 13  1  0  0  0  0
 13 14  1  0  0  0  0
 14 15  4  0  0  0  0
 15 16  4  0  0  0  0
 16 17  4  0  0  0  0
 17 18  1  0  0  0  0
 18 19  4  0  0  0  0
 19 20  4  0  0  0  0
 20 21  4  0  0  0  0
 21 22  4  0  0  0  0
 22 23  4  0  0  0  0
 18 23  4  0  0  0  0
 17 24  4  0  0  0  0
 24 25  4  0  0  0  0
 14 25  4  0  0  0  0
M  STY  2   1 DAT   2 DAT
M  SAL   1  1   5
M  SDT   1 MRV_IMPLICIT_H                                        
M  SDD   1     0.5304   -0.4125    DR    ALL  0       0  
M  SED   1 IMPL_H1
M  SAL   2  1   8
M  SDT   2 MRV_IMPLICIT_H                                        
M  SDD   2     0.6482   -0.4125    DR    ALL  0       0  
M  SED   2 IMPL_H1
M  END
> <IC50(uM)>
9.699999999999999E-4

> <Outcome>
1.0

> <BindingDB ID>
50555327

> <BindingDB MonomerID>
50211727

> <BindingDB Ligand Name>
CHEMBL3974614

> <Curation/DataSource>
ChEMBL

> <Article DOI>
10.1016/j.bmc.2017.01.009

> <PMID>
28118956

> <Patent Number>
?

> <Authors>
Inaoka, DK; Iida, M; Hashimoto, S; Tabuchi, T; Kuranaga, T; Balogun, EO; Honma, T; Tanaka, A; Harada, S; Nara, T; Kita, K; Inoue, M

> <Link to Ligand in BindingDB>
http://www.bindingdb.org/bind/chemsearch/marvin/MolStructure.jsp?monomerid=50211727

> <Link to Ligand-Target Pair in BindingDB>
http://www.bindingdb.org/jsp/dbsearch/PrimarySearch_ki.jsp?energyterm=kJ/mole&tag=r21&monomerid=50211727&enzyme=Dihydroorotate+dehydrogenase&column=ki&startPg=0&Increment=50&submit=Search

> <PubChem CID>
134154436

> <PubChem SID>
375983065

$$$$

  Mrv2115 07222212352D          

 27 30  0  0  0  0            999 V2000
    4.0668    2.3479    0.0000 C   0  0  0  0  0  0  0  0  0  0  0  0
    3.3523    1.9354    0.0000 C   0  0  0  0  0  0  0  0  0  0  0  0
    3.3523    1.1104    0.0000 C   0  0  0  0  0  0  0  0  0  0  0  0
    2.6378    0.6979    0.0000 C   0  0  0  0  0  0  0  0  0  0  0  0
    2.6378   -0.1271    0.0000 C   0  0  0  0  0  0  0  0  0  0  0  0
    1.9233   -0.5396    0.0000 O   0  0  0  0  0  0  0  0  0  0  0  0
    3.3523   -0.5396    0.0000 O   0  0  0  0  0  0  0  0  0  0  0  0
    1.9233    1.1104    0.0000 C   0  0  0  0  0  0  0  0  0  0  0  0
    1.1387    0.8555    0.0000 N   0  0  0  0  0  0  0  0  0  0  0  0
    0.6538    1.5229    0.0000 C   0  0  0  0  0  0  0  0  0  0  0  0
   -0.1712    1.5229    0.0000 C   0  0  0  0  0  0  0  0  0  0  0  0
   -0.5837    0.8085    0.0000 C   0  0  0  0  0  0  0  0  0  0  0  0
   -0.1712    0.0940    0.0000 F   0  0  0  0  0  0  0  0  0  0  0  0
   -1.4087    0.8085    0.0000 C   0  0  0  0  0  0  0  0  0  0  0  0
   -1.8212    1.5229    0.0000 C   0  0  0  0  0  0  0  0  0  0  0  0
   -2.6462    1.5229    0.0000 C   0  0  0  0  0  0  0  0  0  0  0  0
   -3.0587    0.8085    0.0000 C   0  0  0  0  0  0  0  0  0  0  0  0
   -3.8837    0.8085    0.0000 C   0  0  0  0  0  0  0  0  0  0  0  0
   -4.2962    1.5229    0.0000 C   0  0  0  0  0  0  0  0  0  0  0  0
   -3.8837    2.2374    0.0000 C   0  0  0  0  0  0  0  0  0  0  0  0
   -3.0587    2.2374    0.0000 C   0  0  0  0  0  0  0  0  0  0  0  0
   -1.4087    2.2374    0.0000 C   0  0  0  0  0  0  0  0  0  0  0  0
   -0.5837    2.2374    0.0000 C   0  0  0  0  0  0  0  0  0  0  0  0
   -0.1712    2.9519    0.0000 F   0  0  0  0  0  0  0  0  0  0  0  0
    1.1387    2.1904    0.0000 N   0  0  0  0  0  0  0  0  0  0  0  0
    1.9233    1.9354    0.0000 C   0  0  0  0  0  0  0  0  0  0  0  0
    2.6378    2.3479    0.0000 C   0  0  0  0  0  0  0  0  0  0  0  0
  1  2  1  0  0  0  0
  2  3  4  0  0  0  0
  3  4  4  0  0  0  0
  4  5  1  0  0  0  0
  5  6  2  0  0  0  0
  5  7  1  0  0  0  0
  4  8  4  0  0  0  0
  8  9  4  0  0  0  0
  9 10  4  0  0  0  0
 10 11  1  0  0  0  0
 11 12  4  0  0  0  0
 12 13  1  0  0  0  0
 12 14  4  0  0  0  0
 14 15  4  0  0  0  0
 15 16  1  0  0  0  0
 16 17  4  0  0  0  0
 17 18  4  0  0  0  0
 18 19  4  0  0  0  0
 19 20  4  0  0  0  0
 20 21  4  0  0  0  0
 16 21  4  0  0  0  0
 15 22  4  0  0  0  0
 22 23  4  0  0  0  0
 11 23  4  0  0  0  0
 23 24  1  0  0  0  0
 10 25  4  0  0  0  0
 25 26  4  0  0  0  0
  8 26  4  0  0  0  0
 26 27  4  0  0  0  0
  2 27  4  0  0  0  0
M  STY  1   1 DAT
M  SAL   1  1  25
M  SDT   1 MRV_IMPLICIT_H                                        
M  SDD   1     0.5304   -0.4125    DR    ALL  0       0  
M  SED   1 IMPL_H1
M  END
> <IC50(uM)>
0.177

> <Outcome>
1.0

> <BindingDB ID>
297769

> <BindingDB MonomerID>
155425

> <BindingDB Ligand Name>
US9006454, I48

> <Curation/DataSource>
US Patent

> <Article DOI>
?

> <PMID>
?

> <Patent Number>
US9006454

> <Authors>
Thunuguntla, SS; Subramanya, H; Kunnam, SR; Sanivaru Vijay, SR; Bingi, C; Kusanur, R; Schwarz, M; Arlt, M

> <Link to Ligand in BindingDB>
http://www.bindingdb.org/bind/chemsearch/marvin/MolStructure.jsp?monomerid=155425

> <Link to Ligand-Target Pair in BindingDB>
http://www.bindingdb.org/jsp/dbsearch/PrimarySearch_ki.jsp?energyterm=kJ/mole&tag=r21&monomerid=155425&enzyme=Dihydroorotate+dehydrogenase&column=ki&startPg=0&Increment=50&submit=Search

> <PubChem CID>
46946583

> <PubChem SID>
253658362

$$$$

  Mrv2115 07222212352D          

 26 29  0  0  0  0            999 V2000
    1.4289   -2.4750    0.0000 O   0  0  0  0  0  0  0  0  0  0  0  0
    1.4289   -1.6500    0.0000 C   0  0  0  0  0  0  0  0  0  0  0  0
    0.7145   -1.2375    0.0000 C   0  0  0  0  0  0  0  0  0  0  0  0
    0.0000   -1.6500    0.0000 O   0  0  0  0  0  0  0  0  0  0  0  0
    0.7145   -0.4125    0.0000 C   0  0  0  0  0  0  0  0  0  0  0  0
    0.0000    0.0000    0.0000 C   0  0  0  0  0  0  0  0  0  0  0  0
   -0.7145   -0.4125    0.0000 C   0  0  0  0  0  0  0  0  0  0  0  0
   -1.4289    0.0000    0.0000 C   0  0  0  0  0  0  0  0  0  0  0  0
   -1.4289    0.8250    0.0000 C   0  0  0  0  0  0  0  0  0  0  0  0
   -2.1434    1.2375    0.0000 C   0  0  0  0  0  0  0  0  0  0  0  0
   -2.8579    0.8250    0.0000 C   0  0  0  0  0  0  0  0  0  0  0  0
   -3.5724    1.2375    0.0000 C   0  0  0  0  0  0  0  0  0  0  0  0
   -3.5724    2.0625    0.0000 C   0  0  0  0  0  0  0  0  0  0  0  0
   -4.2868    2.4750    0.0000 Cl  0  0  0  0  0  0  0  0  0  0  0  0
   -2.8579    2.4750    0.0000 C   0  0  0  0  0  0  0  0  0  0  0  0
   -2.1434    2.0625    0.0000 C   0  0  0  0  0  0  0  0  0  0  0  0
   -0.7145    1.2375    0.0000 C   0  0  0  0  0  0  0  0  0  0  0  0
    0.0000    0.8250    0.0000 C   0  0  0  0  0  0  0  0  0  0  0  0
    1.4289    0.0000    0.0000 C   0  0  0  0  0  0  0  0  0  0  0  0
    1.4289    0.8250    0.0000 O   0  0  0  0  0  0  0  0  0  0  0  0
    2.1434   -0.4125    0.0000 C   0  0  0  0  0  0  0  0  0  0  0  0
    2.8579    0.0000    0.0000 C   0  0  0  0  0  0  0  0  0  0  0  0
    3.5724   -0.4125    0.0000 C   0  0  0  0  0  0  0  0  0  0  0  0
    3.5724   -1.2375    0.0000 C   0  0  0  0  0  0  0  0  0  0  0  0
    2.8579   -1.6500    0.0000 C   0  0  0  0  0  0  0  0  0  0  0  0
    2.1434   -1.2375    0.0000 C   0  0  0  0  0  0  0  0  0  0  0  0
  1  2  2  0  0  0  0
  2  3  1  0  0  0  0
  3  4  2  0  0  0  0
  3  5  1  0  0  0  0
  5  6  1  0  0  0  0
  6  7  1  0  0  0  0
  7  8  1  0  0  0  0
  8  9  1  0  0  0  0
  9 10  1  0  0  0  0
 10 11  4  0  0  0  0
 11 12  4  0  0  0  0
 12 13  4  0  0  0  0
 13 14  1  0  0  0  0
 13 15  4  0  0  0  0
 15 16  4  0  0  0  0
 10 16  4  0  0  0  0
  9 17  1  0  0  0  0
 17 18  1  0  0  0  0
  6 18  1  0  0  0  0
  5 19  1  0  0  0  0
 19 20  2  0  0  0  0
 19 21  1  0  0  0  0
 21 22  4  0  0  0  0
 22 23  4  0  0  0  0
 23 24  4  0  0  0  0
 24 25  4  0  0  0  0
 25 26  4  0  0  0  0
 21 26  4  0  0  0  0
  2 26  1  0  0  0  0
M  END
> <IC50(uM)>
8.575

> <Outcome>
0.0

> <BindingDB ID>
51292552; 51282874; 51338159; 51055877

> <BindingDB MonomerID>
50203188

> <BindingDB Ligand Name>
2-((1r,4r)-4-(4-chlorophenyl)cyclohexyl)-3-hydroxynaphthalene-1,4-dione::2-[4-(4-Chloro-phenyl)-cyclohexyl]-3-hydroxy-[1,4]naphthoquinone::2-[4-(4-Chloro-phenyl)-cyclohexyl]-3-hydroxy-[1,4]naphthoquinone(atovaquone)::3-(4-(4-chlorophenyl)cyclohexyl)-4-hydroxynaphthalene-1,2-dione::566C::566C80::ATOVAQUONE::CHEMBL1450::Mepron::trans-3-(4-(4-chlorophenyl)cyclohexyl)-1,4-dihydronaphthalene-1,2,4-triol

> <Curation/DataSource>
ChEMBL

> <Article DOI>
10.1016/j.ejmech.2019.111681; 10.1016/j.ejmech.2019.02.018; 10.1021/acs.jmedchem.0c00512; 10.1021/jm301848w

> <PMID>
31557612; 30776695; 32496056; 23452331

> <Patent Number>
?

> <Authors>
Boschi, D; Pippione, AC; Sainas, S; Lolli, ML; Calil, FA; David, JS; Chiappetta, ERC; Fumagalli, F; Mello, RB; Leite, FHA; Castilho, MS; Emery, FS; Nonato, MC; Zuo, Z; Liu, X; Qian, X; Zeng, T; Sang, N; Liu, H; Zhou, Y; Tao, L; Zhou, X; Su, N; Yu, Y; Chen, Q; Luo, Y; Zhao, Y; Munier-Lehmann, H; Vidalain, PO; Tangy, F; Janin, YL

> <Link to Ligand in BindingDB>
http://www.bindingdb.org/bind/chemsearch/marvin/MolStructure.jsp?monomerid=50203188

> <Link to Ligand-Target Pair in BindingDB>
http://www.bindingdb.org/jsp/dbsearch/PrimarySearch_ki.jsp?energyterm=kJ/mole&tag=r21&monomerid=50203188&enzyme=Dihydroorotate+dehydrogenase&column=ki&startPg=0&Increment=50&submit=Search

> <PubChem CID>
74989

> <PubChem SID>
104082493

$$$$

  Mrv2115 07222212352D          

 33 35  0  0  0  0            999 V2000
    4.2868   -2.4750    0.0000 C   0  0  0  0  0  0  0  0  0  0  0  0
    3.5724   -2.8875    0.0000 C   0  0  0  0  0  0  0  0  0  0  0  0
    2.8579   -2.4750    0.0000 O   0  0  0  0  0  0  0  0  0  0  0  0
    2.1434   -2.8875    0.0000 C   0  0  0  0  0  0  0  0  0  0  0  0
    2.1434   -3.7125    0.0000 C   0  0  0  0  0  0  0  0  0  0  0  0
    1.4289   -4.1250    0.0000 C   0  0  0  0  0  0  0  0  0  0  0  0
    1.4289   -4.9500    0.0000 N   0  0  0  0  0  0  0  0  0  0  0  0
    2.0964   -5.4349    0.0000 N   0  0  0  0  0  0  0  0  0  0  0  0
    1.8414   -6.2195    0.0000 C   0  0  0  0  0  0  0  0  0  0  0  0
    2.3264   -6.8870    0.0000 Cl  0  0  0  0  0  0  0  0  0  0  0  0
    1.0164   -6.2195    0.0000 N   0  0  0  0  0  0  0  0  0  0  0  0
    0.5315   -6.8870    0.0000 C   0  0  0  0  0  0  0  0  0  0  0  0
    0.7615   -5.4349    0.0000 C   0  0  0  0  0  0  0  0  0  0  0  0
   -0.0231   -5.1800    0.0000 O   0  0  0  0  0  0  0  0  0  0  0  0
    0.7145   -3.7125    0.0000 C   0  0  0  0  0  0  0  0  0  0  0  0
    0.0000   -4.1250    0.0000 F   0  0  0  0  0  0  0  0  0  0  0  0
    0.7145   -2.8875    0.0000 C   0  0  0  0  0  0  0  0  0  0  0  0
    1.4289   -2.4750    0.0000 C   0  0  0  0  0  0  0  0  0  0  0  0
    1.4289   -1.6500    0.0000 C   0  0  0  0  0  0  0  0  0  0  0  0
    2.1434   -1.2375    0.0000 O   0  0  0  0  0  0  0  0  0  0  0  0
    0.7145   -1.2375    0.0000 N   0  0  0  0  0  0  0  0  0  0  0  0
    0.7145   -0.4125    0.0000 C   0  0  0  0  0  0  0  0  0  0  0  0
    0.0000    0.0000    0.0000 C   0  0  0  0  0  0  0  0  0  0  0  0
   -0.7145   -0.4125    0.0000 F   0  0  0  0  0  0  0  0  0  0  0  0
    0.0000    0.8250    0.0000 C   0  0  0  0  0  0  0  0  0  0  0  0
    0.7145    1.2375    0.0000 C   0  0  0  0  0  0  0  0  0  0  0  0
    1.4289    0.8250    0.0000 C   0  0  0  0  0  0  0  0  0  0  0  0
    1.4289    0.0000    0.0000 C   0  0  0  0  0  0  0  0  0  0  0  0
    2.1434   -0.4125    0.0000 F   0  0  0  0  0  0  0  0  0  0  0  0
    3.5724   -3.7125    0.0000 C   0  0  0  0  0  0  0  0  0  0  0  0
    2.7474   -3.7125    0.0000 F   0  0  0  0  0  0  0  0  0  0  0  0
    4.3974   -3.7125    0.0000 F   0  0  0  0  0  0  0  0  0  0  0  0
    3.5724   -4.5375    0.0000 F   0  0  0  0  0  0  0  0  0  0  0  0
  1  2  1  0  0  0  0
  2  3  1  0  0  0  0
  3  4  1  0  0  0  0
  4  5  4  0  0  0  0
  5  6  4  0  0  0  0
  6  7  1  0  0  0  0
  7  8  4  0  0  0  0
  8  9  4  0  0  0  0
  9 10  1  0  0  0  0
  9 11  4  0  0  0  0
 11 12  1  0  0  0  0
 11 13  4  0  0  0  0
  7 13  4  0  0  0  0
 13 14  2  0  0  0  0
  6 15  4  0  0  0  0
 15 16  1  0  0  0  0
 15 17  4  0  0  0  0
 17 18  4  0  0  0  0
  4 18  4  0  0  0  0
 18 19  1  0  0  0  0
 19 20  2  0  0  0  0
 19 21  1  0  0  0  0
 21 22  1  0  0  0  0
 22 23  4  0  0  0  0
 23 24  1  0  0  0  0
 23 25  4  0  0  0  0
 25 26  4  0  0  0  0
 26 27  4  0  0  0  0
 27 28  4  0  0  0  0
 22 28  4  0  0  0  0
 28 29  1  0  0  0  0
  2 30  1  0  0  0  0
 30 31  1  0  0  0  0
 30 32  1  0  0  0  0
 30 33  1  0  0  0  0
M  END
> <IC50(uM)>
0.065

> <Outcome>
1.0

> <BindingDB ID>
1098715; 972561

> <BindingDB MonomerID>
470435

> <BindingDB Ligand Name>
4-(3-chloro-4-methyl-5-oxo-4,5-dihydro-1H-1,2,4-triazol-1-yl)-N-(2,6-difluorophenyl)-5-fluoro-2-{[(2S)-1,1,1-trifluoropropan-2-yl]oxy}benzamide::US10815215, Example 103::US11130745, Example 103; 4-(3-chloro-4-methyl-5-oxo-4,5-dihydro-1H-1,2,4-triazol-1-yl)-N-(2,6-difluorophenyl)-5-fluoro-2-{[(2S)-1,1,1-trifluoropropan-2-yl]oxy}benzamide::US10815215, Example 103

> <Curation/DataSource>
US Patent

> <Article DOI>
?

> <PMID>
?

> <Patent Number>
US11130745; US10815215

> <Authors>
Gradl, SN; Nguyen, D; Eis, K; Gunther, J; Stellfeld, T; Janzer, A; Christian, S; Muller, T; Sheikh, SE; Sykes, DB; Ferrara, SJ; Krober, M; Merz, C; Niehues, M; Schafer, M; Zimmermann, K; Nising, CF; Gradl, SN; Nguyen, D; Eis, K; Gunther, J; Stellfeld, T; Janzer, A; Christian, S; Muller, T; Sheikh, SE; Zhou, HJ; Zhao, C; Sykes, DB; Ferrara, SJ; Liu, K; Krober, M; Merz, C; Niehues, M; Schafer, M; Zimmermann, K; Nising, CF

> <Link to Ligand in BindingDB>
http://www.bindingdb.org/bind/chemsearch/marvin/MolStructure.jsp?monomerid=470435

> <Link to Ligand-Target Pair in BindingDB>
http://www.bindingdb.org/jsp/dbsearch/PrimarySearch_ki.jsp?energyterm=kJ/mole&tag=r21&monomerid=470435&enzyme=Dihydroorotate+dehydrogenase&column=ki&startPg=0&Increment=50&submit=Search

> <PubChem CID>
134470083

> <PubChem SID>
441609612

$$$$

  Mrv2115 07222212352D          

 22 25  0  0  0  0            999 V2000
    0.9130   -0.8764    0.0000 N   0  0  0  0  0  0  0  0  0  0  0  0
    1.7200   -1.0479    0.0000 C   0  0  0  0  0  0  0  0  0  0  0  0
    2.2720   -0.4349    0.0000 N   0  0  0  0  0  0  0  0  0  0  0  0
    3.0790   -0.6064    0.0000 C   0  0  0  0  0  0  0  0  0  0  0  0
    3.7464   -0.1215    0.0000 C   0  0  0  0  0  0  0  0  0  0  0  0
    4.4139   -0.6064    0.0000 C   0  0  0  0  0  0  0  0  0  0  0  0
    5.2208   -0.4349    0.0000 C   0  0  0  0  0  0  0  0  0  0  0  0
    5.7729   -1.0479    0.0000 C   0  0  0  0  0  0  0  0  0  0  0  0
    5.5179   -1.8326    0.0000 C   0  0  0  0  0  0  0  0  0  0  0  0
    4.7110   -2.0041    0.0000 C   0  0  0  0  0  0  0  0  0  0  0  0
    4.1589   -1.3910    0.0000 C   0  0  0  0  0  0  0  0  0  0  0  0
    3.3339   -1.3910    0.0000 C   0  0  0  0  0  0  0  0  0  0  0  0
    2.7819   -2.0041    0.0000 C   0  0  0  0  0  0  0  0  0  0  0  0
    3.0368   -2.7887    0.0000 N   0  0  0  0  0  0  0  0  0  0  0  0
    2.4848   -3.4018    0.0000 C   0  0  0  0  0  0  0  0  0  0  0  0
    2.7397   -4.1864    0.0000 C   0  0  0  0  0  0  0  0  0  0  0  0
    2.1877   -4.7995    0.0000 C   0  0  0  0  0  0  0  0  0  0  0  0
    1.3807   -4.6280    0.0000 C   0  0  0  0  0  0  0  0  0  0  0  0
    1.1258   -3.8434    0.0000 C   0  0  0  0  0  0  0  0  0  0  0  0
    0.3188   -3.6718    0.0000 F   0  0  0  0  0  0  0  0  0  0  0  0
    1.6778   -3.2303    0.0000 C   0  0  0  0  0  0  0  0  0  0  0  0
    1.9749   -1.8326    0.0000 N   0  0  0  0  0  0  0  0  0  0  0  0
  1  2  1  0  0  0  0
  2  3  4  0  0  0  0
  3  4  4  0  0  0  0
  4  5  4  0  0  0  0
  5  6  4  0  0  0  0
  6  7  4  0  0  0  0
  7  8  4  0  0  0  0
  8  9  4  0  0  0  0
  9 10  4  0  0  0  0
 10 11  4  0  0  0  0
  6 11  4  0  0  0  0
 11 12  4  0  0  0  0
  4 12  1  0  0  0  0
 12 13  4  0  0  0  0
 13 14  1  0  0  0  0
 14 15  1  0  0  0  0
 15 16  4  0  0  0  0
 16 17  4  0  0  0  0
 17 18  4  0  0  0  0
 18 19  4  0  0  0  0
 19 20  1  0  0  0  0
 19 21  4  0  0  0  0
 15 21  4  0  0  0  0
 13 22  4  0  0  0  0
  2 22  4  0  0  0  0
M  STY  1   1 DAT
M  SAL   1  1  22
M  SDT   1 MRV_IMPLICIT_H                                        
M  SDD   1     0.5304   -0.4125    DR    ALL  0       0  
M  SED   1 IMPL_H1
M  END
> <IC50(uM)>
200.0

> <Outcome>
0.0

> <BindingDB ID>
50944651

> <BindingDB MonomerID>
50387409

> <BindingDB Ligand Name>
CHEMBL2047246

> <Curation/DataSource>
ChEMBL

> <Article DOI>
10.1016/j.bmc.2012.05.068

> <PMID>
22739090

> <Patent Number>
?

> <Authors>
Gangjee, A; Zhao, Y; Ihnat, MA; Thorpe, JE; Bailey-Downs, LC; Kisliuk, RL

> <Link to Ligand in BindingDB>
http://www.bindingdb.org/bind/chemsearch/marvin/MolStructure.jsp?monomerid=50387409

> <Link to Ligand-Target Pair in BindingDB>
http://www.bindingdb.org/jsp/dbsearch/PrimarySearch_ki.jsp?energyterm=kJ/mole&tag=r21&monomerid=50387409&enzyme=Dihydroorotate+dehydrogenase&column=ki&startPg=0&Increment=50&submit=Search

> <PubChem CID>
91460131

> <PubChem SID>
160866492

$$$$

  Mrv2115 07222212352D          

 23 24  0  0  0  0            999 V2000
    0.6078    1.1759    0.0000 C   0  0  0  0  0  0  0  0  0  0  0  0
    1.3222    0.7634    0.0000 C   0  0  0  0  0  0  0  0  0  0  0  0
    1.3222   -0.0616    0.0000 O   0  0  0  0  0  0  0  0  0  0  0  0
    2.0367   -0.4741    0.0000 C   0  0  0  0  0  0  0  0  0  0  0  0
    2.7512   -0.0616    0.0000 O   0  0  0  0  0  0  0  0  0  0  0  0
    2.0367   -1.2991    0.0000 C   0  0  0  0  0  0  0  0  0  0  0  0
    2.7041   -1.7840    0.0000 S   0  0  0  0  0  0  0  0  0  0  0  0
    2.4492   -2.5687    0.0000 C   0  0  0  0  0  0  0  0  0  0  0  0
    2.9341   -3.2361    0.0000 N   0  0  0  0  0  0  0  0  0  0  0  0
    2.5986   -3.9898    0.0000 C   0  0  0  0  0  0  0  0  0  0  0  0
    3.0835   -4.6572    0.0000 C   0  0  0  0  0  0  0  0  0  0  0  0
    2.7479   -5.4109    0.0000 C   0  0  0  0  0  0  0  0  0  0  0  0
    1.9275   -5.4971    0.0000 C   0  0  0  0  0  0  0  0  0  0  0  0
    1.5919   -6.2508    0.0000 C   0  0  0  0  0  0  0  0  0  0  0  0
    1.4425   -4.8297    0.0000 C   0  0  0  0  0  0  0  0  0  0  0  0
    0.6221   -4.9159    0.0000 Cl  0  0  0  0  0  0  0  0  0  0  0  0
    1.7781   -4.0760    0.0000 C   0  0  0  0  0  0  0  0  0  0  0  0
    1.6242   -2.5687    0.0000 N   0  0  0  0  0  0  0  0  0  0  0  0
    1.3693   -1.7840    0.0000 C   0  0  0  0  0  0  0  0  0  0  0  0
    0.5846   -1.5291    0.0000 C   0  0  0  0  0  0  0  0  0  0  0  0
   -0.2000   -1.2742    0.0000 C   0  0  0  0  0  0  0  0  0  0  0  0
    0.8396   -0.7445    0.0000 C   0  0  0  0  0  0  0  0  0  0  0  0
    0.3297   -2.3137    0.0000 C   0  0  0  0  0  0  0  0  0  0  0  0
  1  2  1  0  0  0  0
  2  3  1  0  0  0  0
  3  4  1  0  0  0  0
  4  5  2  0  0  0  0
  4  6  1  0  0  0  0
  6  7  4  0  0  0  0
  7  8  4  0  0  0  0
  8  9  1  0  0  0  0
  9 10  1  0  0  0  0
 10 11  4  0  0  0  0
 11 12  4  0  0  0  0
 12 13  4  0  0  0  0
 13 14  1  0  0  0  0
 13 15  4  0  0  0  0
 15 16  1  0  0  0  0
 15 17  4  0  0  0  0
 10 17  4  0  0  0  0
  8 18  4  0  0  0  0
 18 19  4  0  0  0  0
  6 19  4  0  0  0  0
 19 20  1  0  0  0  0
 20 21  1  0  0  0  0
 20 22  1  0  0  0  0
 20 23  1  0  0  0  0
M  END
> <IC50(uM)>
0.552

> <Outcome>
1.0

> <BindingDB ID>
50312272

> <BindingDB MonomerID>
50071625

> <BindingDB Ligand Name>
CHEMBL3410593

> <Curation/DataSource>
ChEMBL

> <Article DOI>
10.1021/jm501127s

> <PMID>
25580811

> <Patent Number>
?

> <Authors>
Zhu, J; Han, L; Diao, Y; Ren, X; Xu, M; Xu, L; Li, S; Li, Q; Dong, D; Huang, J; Liu, X; Zhao, Z; Wang, R; Zhu, L; Xu, Y; Qian, X; Li, H

> <Link to Ligand in BindingDB>
http://www.bindingdb.org/bind/chemsearch/marvin/MolStructure.jsp?monomerid=50071625

> <Link to Ligand-Target Pair in BindingDB>
http://www.bindingdb.org/jsp/dbsearch/PrimarySearch_ki.jsp?energyterm=kJ/mole&tag=r21&monomerid=50071625&enzyme=Dihydroorotate+dehydrogenase&column=ki&startPg=0&Increment=50&submit=Search

> <PubChem CID>
118732509

> <PubChem SID>
313072557

$$$$

  Mrv2115 07222212352D          

 27 30  0  0  0  0            999 V2000
   -0.7177    4.9368    0.0000 C   0  0  0  0  0  0  0  0  0  0  0  0
   -0.3822    4.1831    0.0000 C   0  0  0  0  0  0  0  0  0  0  0  0
   -0.8671    3.5157    0.0000 O   0  0  0  0  0  0  0  0  0  0  0  0
   -0.5315    2.7620    0.0000 C   0  0  0  0  0  0  0  0  0  0  0  0
    0.2890    2.6757    0.0000 O   0  0  0  0  0  0  0  0  0  0  0  0
   -1.0164    2.0945    0.0000 C   0  0  0  0  0  0  0  0  0  0  0  0
   -0.7615    1.3099    0.0000 S   0  0  0  0  0  0  0  0  0  0  0  0
   -1.4289    0.8250    0.0000 C   0  0  0  0  0  0  0  0  0  0  0  0
   -1.4289    0.0000    0.0000 N   0  0  0  0  0  0  0  0  0  0  0  0
   -0.7145   -0.4125    0.0000 C   0  0  0  0  0  0  0  0  0  0  0  0
   -0.7145   -1.2375    0.0000 C   0  0  0  0  0  0  0  0  0  0  0  0
    0.0000   -1.6500    0.0000 C   0  0  0  0  0  0  0  0  0  0  0  0
    0.7145   -1.2375    0.0000 C   0  0  0  0  0  0  0  0  0  0  0  0
    0.7145   -0.4125    0.0000 C   0  0  0  0  0  0  0  0  0  0  0  0
    0.0000   -0.0000    0.0000 C   0  0  0  0  0  0  0  0  0  0  0  0
    1.4289   -0.0000    0.0000 C   0  0  0  0  0  0  0  0  0  0  0  0
    2.1434   -0.4125    0.0000 C   0  0  0  0  0  0  0  0  0  0  0  0
    2.1434   -1.2375    0.0000 C   0  0  0  0  0  0  0  0  0  0  0  0
    1.4289   -1.6500    0.0000 C   0  0  0  0  0  0  0  0  0  0  0  0
   -2.0964    1.3099    0.0000 N   0  0  0  0  0  0  0  0  0  0  0  0
   -1.8414    2.0945    0.0000 C   0  0  0  0  0  0  0  0  0  0  0  0
   -2.3264    2.7620    0.0000 C   0  0  0  0  0  0  0  0  0  0  0  0
   -3.1468    2.6757    0.0000 C   0  0  0  0  0  0  0  0  0  0  0  0
   -3.6318    3.3432    0.0000 C   0  0  0  0  0  0  0  0  0  0  0  0
   -3.2962    4.0969    0.0000 C   0  0  0  0  0  0  0  0  0  0  0  0
   -2.4757    4.1831    0.0000 C   0  0  0  0  0  0  0  0  0  0  0  0
   -1.9908    3.5157    0.0000 C   0  0  0  0  0  0  0  0  0  0  0  0
  1  2  1  0  0  0  0
  2  3  1  0  0  0  0
  3  4  1  0  0  0  0
  4  5  2  0  0  0  0
  4  6  1  0  0  0  0
  6  7  4  0  0  0  0
  7  8  4  0  0  0  0
  8  9  1  0  0  0  0
  9 10  1  0  0  0  0
 10 11  4  0  0  0  0
 11 12  4  0  0  0  0
 12 13  4  0  0  0  0
 13 14  4  0  0  0  0
 14 15  4  0  0  0  0
 10 15  4  0  0  0  0
 14 16  1  0  0  0  0
 16 17  1  0  0  0  0
 17 18  1  0  0  0  0
 18 19  1  0  0  0  0
 13 19  1  0  0  0  0
  8 20  4  0  0  0  0
 20 21  4  0  0  0  0
  6 21  4  0  0  0  0
 21 22  1  0  0  0  0
 22 23  4  0  0  0  0
 23 24  4  0  0  0  0
 24 25  4  0  0  0  0
 25 26  4  0  0  0  0
 26 27  4  0  0  0  0
 22 27  4  0  0  0  0
M  END
> <IC50(uM)>
0.018

> <Outcome>
1.0

> <BindingDB ID>
50312489

> <BindingDB MonomerID>
50071796

> <BindingDB Ligand Name>
CHEMBL3410609

> <Curation/DataSource>
ChEMBL

> <Article DOI>
10.1021/jm501127s

> <PMID>
25580811

> <Patent Number>
?

> <Authors>
Zhu, J; Han, L; Diao, Y; Ren, X; Xu, M; Xu, L; Li, S; Li, Q; Dong, D; Huang, J; Liu, X; Zhao, Z; Wang, R; Zhu, L; Xu, Y; Qian, X; Li, H

> <Link to Ligand in BindingDB>
http://www.bindingdb.org/bind/chemsearch/marvin/MolStructure.jsp?monomerid=50071796

> <Link to Ligand-Target Pair in BindingDB>
http://www.bindingdb.org/jsp/dbsearch/PrimarySearch_ki.jsp?energyterm=kJ/mole&tag=r21&monomerid=50071796&enzyme=Dihydroorotate+dehydrogenase&column=ki&startPg=0&Increment=50&submit=Search

> <PubChem CID>
71543403

> <PubChem SID>
103965506

$$$$

  Mrv2115 07222212352D          

 18 19  0  0  0  0            999 V2000
    2.0367   -0.4741    0.0000 C   0  0  0  0  0  0  0  0  0  0  0  0
    2.0367   -1.2991    0.0000 C   0  0  0  0  0  0  0  0  0  0  0  0
    1.3693   -1.7840    0.0000 N   0  0  0  0  0  0  0  0  0  0  0  0
    1.6242   -2.5687    0.0000 N   0  0  0  0  0  0  0  0  0  0  0  0
    2.4492   -2.5687    0.0000 C   0  0  0  0  0  0  0  0  0  0  0  0
    2.9341   -3.2361    0.0000 N   0  0  0  0  0  0  0  0  0  0  0  0
    2.5986   -3.9898    0.0000 C   0  0  0  0  0  0  0  0  0  0  0  0
    3.0835   -4.6572    0.0000 C   0  0  0  0  0  0  0  0  0  0  0  0
    3.9040   -4.5710    0.0000 F   0  0  0  0  0  0  0  0  0  0  0  0
    2.7479   -5.4109    0.0000 C   0  0  0  0  0  0  0  0  0  0  0  0
    1.9275   -5.4971    0.0000 C   0  0  0  0  0  0  0  0  0  0  0  0
    1.5919   -6.2508    0.0000 F   0  0  0  0  0  0  0  0  0  0  0  0
    1.4425   -4.8297    0.0000 C   0  0  0  0  0  0  0  0  0  0  0  0
    1.7781   -4.0760    0.0000 C   0  0  0  0  0  0  0  0  0  0  0  0
    1.2932   -3.4086    0.0000 F   0  0  0  0  0  0  0  0  0  0  0  0
    2.7041   -1.7840    0.0000 C   0  0  0  0  0  0  0  0  0  0  0  0
    3.4888   -1.5291    0.0000 C   0  0  0  0  0  0  0  0  0  0  0  0
    4.2734   -1.2742    0.0000 N   0  0  0  0  0  0  0  0  0  0  0  0
  1  2  1  0  0  0  0
  2  3  4  0  0  0  0
  3  4  4  0  0  0  0
  4  5  4  0  0  0  0
  5  6  1  0  0  0  0
  6  7  1  0  0  0  0
  7  8  4  0  0  0  0
  8  9  1  0  0  0  0
  8 10  4  0  0  0  0
 10 11  4  0  0  0  0
 11 12  1  0  0  0  0
 11 13  4  0  0  0  0
 13 14  4  0  0  0  0
  7 14  4  0  0  0  0
 14 15  1  0  0  0  0
  5 16  4  0  0  0  0
  2 16  4  0  0  0  0
 16 17  1  0  0  0  0
 17 18  3  0  0  0  0
M  STY  1   1 DAT
M  SAL   1  1   4
M  SDT   1 MRV_IMPLICIT_H                                        
M  SDD   1     0.5304   -0.4125    DR    ALL  0       0  
M  SED   1 IMPL_H1
M  END
> <IC50(uM)>
22.4

> <Outcome>
0.0

> <BindingDB ID>
50786762

> <BindingDB MonomerID>
50066586

> <BindingDB Ligand Name>
5-Methyl-3-(2,4,6-trifluoro-phenylamino)-1H-pyrazole-4-carbonitrile::CHEMBL118125

> <Curation/DataSource>
ChEMBL

> <Article DOI>
10.1021/jm981028c

> <PMID>
9719606

> <Patent Number>
?

> <Authors>
Papageorgiou, C; Albert, R; Floersheim, P; Lemaire, M; Bitch, F; Weber, HP; Andersen, E; Hungerford, V; Schreier, MH

> <Link to Ligand in BindingDB>
http://www.bindingdb.org/bind/chemsearch/marvin/MolStructure.jsp?monomerid=50066586

> <Link to Ligand-Target Pair in BindingDB>
http://www.bindingdb.org/jsp/dbsearch/PrimarySearch_ki.jsp?energyterm=kJ/mole&tag=r21&monomerid=50066586&enzyme=Dihydroorotate+dehydrogenase&column=ki&startPg=0&Increment=50&submit=Search

> <PubChem CID>
10682218

> <PubChem SID>
103961206

$$$$

  Mrv2115 07222212352D          

 28 30  0  0  0  0            999 V2000
   -3.3220   -6.0992    0.0000 C   0  0  0  0  0  0  0  0  0  0  0  0
   -2.6076   -6.5117    0.0000 C   0  0  0  0  0  0  0  0  0  0  0  0
   -1.8931   -6.0992    0.0000 C   0  0  0  0  0  0  0  0  0  0  0  0
   -1.1786   -6.5117    0.0000 C   0  0  0  0  0  0  0  0  0  0  0  0
   -0.4642   -6.0992    0.0000 O   0  0  0  0  0  0  0  0  0  0  0  0
    0.2503   -6.5117    0.0000 C   0  0  0  0  0  0  0  0  0  0  0  0
    0.2503   -7.3367    0.0000 O   0  0  0  0  0  0  0  0  0  0  0  0
    0.9648   -6.0992    0.0000 C   0  0  0  0  0  0  0  0  0  0  0  0
    0.9648   -5.2742    0.0000 C   0  0  0  0  0  0  0  0  0  0  0  0
    1.6793   -4.8617    0.0000 C   0  0  0  0  0  0  0  0  0  0  0  0
    2.3937   -5.2742    0.0000 C   0  0  0  0  0  0  0  0  0  0  0  0
    2.3937   -6.0992    0.0000 C   0  0  0  0  0  0  0  0  0  0  0  0
    1.6793   -6.5117    0.0000 C   0  0  0  0  0  0  0  0  0  0  0  0
    1.6793   -7.3367    0.0000 C   0  0  0  0  0  0  0  0  0  0  0  0
    0.9648   -7.7492    0.0000 N   0  0  0  0  0  0  0  0  0  0  0  0
    0.9648   -8.5742    0.0000 N   0  0  0  0  0  0  0  0  0  0  0  0
    1.6793   -8.9867    0.0000 C   0  0  0  0  0  0  0  0  0  0  0  0
    2.4329   -8.6511    0.0000 N   0  0  0  0  0  0  0  0  0  0  0  0
    2.9850   -9.2642    0.0000 C   0  0  0  0  0  0  0  0  0  0  0  0
    3.8054   -9.1780    0.0000 C   0  0  0  0  0  0  0  0  0  0  0  0
    4.1410   -8.4243    0.0000 C   0  0  0  0  0  0  0  0  0  0  0  0
    4.9615   -8.3381    0.0000 C   0  0  0  0  0  0  0  0  0  0  0  0
    5.4464   -9.0055    0.0000 C   0  0  0  0  0  0  0  0  0  0  0  0
    5.1109   -9.7592    0.0000 C   0  0  0  0  0  0  0  0  0  0  0  0
    4.2904   -9.8454    0.0000 C   0  0  0  0  0  0  0  0  0  0  0  0
    3.9548  -10.5991    0.0000 Cl  0  0  0  0  0  0  0  0  0  0  0  0
    2.5725   -9.9787    0.0000 C   0  0  0  0  0  0  0  0  0  0  0  0
    1.7655   -9.8072    0.0000 S   0  0  0  0  0  0  0  0  0  0  0  0
  1  2  1  0  0  0  0
  2  3  1  0  0  0  0
  3  4  1  0  0  0  0
  4  5  1  0  0  0  0
  5  6  1  0  0  0  0
  6  7  2  0  0  0  0
  6  8  1  0  0  0  0
  8  9  4  0  0  0  0
  9 10  4  0  0  0  0
 10 11  4  0  0  0  0
 11 12  4  0  0  0  0
 12 13  4  0  0  0  0
  8 13  4  0  0  0  0
 13 14  1  0  0  0  0
 14 15  2  0  0  0  0
 15 16  1  0  0  0  0
 16 17  1  0  0  0  0
 17 18  4  0  0  0  0
 18 19  4  0  0  0  0
 19 20  1  0  0  0  0
 20 21  4  0  0  0  0
 21 22  4  0  0  0  0
 22 23  4  0  0  0  0
 23 24  4  0  0  0  0
 24 25  4  0  0  0  0
 20 25  4  0  0  0  0
 25 26  1  0  0  0  0
 19 27  4  0  0  0  0
 27 28  4  0  0  0  0
 17 28  4  0  0  0  0
M  END
> <IC50(uM)>
3.533

> <Outcome>
0.0

> <BindingDB ID>
1001138

> <BindingDB MonomerID>
482824

> <BindingDB Ligand Name>
US10919869, No.  A4

> <Curation/DataSource>
US Patent

> <Article DOI>
?

> <PMID>
?

> <Patent Number>
US10919869

> <Authors>
Li, H; Xu, Y; Wang, R; Zhao, Z; Song, W; Xu, L

> <Link to Ligand in BindingDB>
http://www.bindingdb.org/bind/chemsearch/marvin/MolStructure.jsp?monomerid=482824

> <Link to Ligand-Target Pair in BindingDB>
http://www.bindingdb.org/jsp/dbsearch/PrimarySearch_ki.jsp?energyterm=kJ/mole&tag=r21&monomerid=482824&enzyme=Dihydroorotate+dehydrogenase&column=ki&startPg=0&Increment=50&submit=Search

> <PubChem CID>
132157985

> <PubChem SID>
443551965

$$$$

  Mrv2115 07222212352D          

 20 21  0  0  0  0            999 V2000
    0.6078    1.1759    0.0000 C   0  0  0  0  0  0  0  0  0  0  0  0
    1.3222    0.7634    0.0000 C   0  0  0  0  0  0  0  0  0  0  0  0
    1.3222   -0.0616    0.0000 O   0  0  0  0  0  0  0  0  0  0  0  0
    2.0367   -0.4741    0.0000 C   0  0  0  0  0  0  0  0  0  0  0  0
    2.7512   -0.0616    0.0000 O   0  0  0  0  0  0  0  0  0  0  0  0
    2.0367   -1.2991    0.0000 C   0  0  0  0  0  0  0  0  0  0  0  0
    2.7041   -1.7840    0.0000 S   0  0  0  0  0  0  0  0  0  0  0  0
    2.4492   -2.5687    0.0000 C   0  0  0  0  0  0  0  0  0  0  0  0
    2.9341   -3.2361    0.0000 N   0  0  0  0  0  0  0  0  0  0  0  0
    2.5986   -3.9898    0.0000 C   0  0  0  0  0  0  0  0  0  0  0  0
    3.0835   -4.6572    0.0000 C   0  0  0  0  0  0  0  0  0  0  0  0
    2.7479   -5.4109    0.0000 C   0  0  0  0  0  0  0  0  0  0  0  0
    1.9275   -5.4971    0.0000 C   0  0  0  0  0  0  0  0  0  0  0  0
    1.5919   -6.2508    0.0000 C   0  0  0  0  0  0  0  0  0  0  0  0
    1.4425   -4.8297    0.0000 C   0  0  0  0  0  0  0  0  0  0  0  0
    0.6221   -4.9159    0.0000 Cl  0  0  0  0  0  0  0  0  0  0  0  0
    1.7781   -4.0760    0.0000 C   0  0  0  0  0  0  0  0  0  0  0  0
    1.6242   -2.5687    0.0000 N   0  0  0  0  0  0  0  0  0  0  0  0
    1.3693   -1.7840    0.0000 C   0  0  0  0  0  0  0  0  0  0  0  0
    0.5846   -1.5291    0.0000 C   0  0  0  0  0  0  0  0  0  0  0  0
  1  2  1  0  0  0  0
  2  3  1  0  0  0  0
  3  4  1  0  0  0  0
  4  5  2  0  0  0  0
  4  6  1  0  0  0  0
  6  7  4  0  0  0  0
  7  8  4  0  0  0  0
  8  9  1  0  0  0  0
  9 10  1  0  0  0  0
 10 11  4  0  0  0  0
 11 12  4  0  0  0  0
 12 13  4  0  0  0  0
 13 14  1  0  0  0  0
 13 15  4  0  0  0  0
 15 16  1  0  0  0  0
 15 17  4  0  0  0  0
 10 17  4  0  0  0  0
  8 18  4  0  0  0  0
 18 19  4  0  0  0  0
  6 19  4  0  0  0  0
 19 20  1  0  0  0  0
M  END
> <IC50(uM)>
0.969

> <Outcome>
1.0

> <BindingDB ID>
50312471

> <BindingDB MonomerID>
50071783

> <BindingDB Ligand Name>
CHEMBL3410580

> <Curation/DataSource>
ChEMBL

> <Article DOI>
10.1021/jm501127s

> <PMID>
25580811

> <Patent Number>
?

> <Authors>
Zhu, J; Han, L; Diao, Y; Ren, X; Xu, M; Xu, L; Li, S; Li, Q; Dong, D; Huang, J; Liu, X; Zhao, Z; Wang, R; Zhu, L; Xu, Y; Qian, X; Li, H

> <Link to Ligand in BindingDB>
http://www.bindingdb.org/bind/chemsearch/marvin/MolStructure.jsp?monomerid=50071783

> <Link to Ligand-Target Pair in BindingDB>
http://www.bindingdb.org/jsp/dbsearch/PrimarySearch_ki.jsp?energyterm=kJ/mole&tag=r21&monomerid=50071783&enzyme=Dihydroorotate+dehydrogenase&column=ki&startPg=0&Increment=50&submit=Search

> <PubChem CID>
100253413

> <PubChem SID>
103965493

$$$$

  Mrv2115 07222212352D          

 37 41  0  0  0  0            999 V2000
   -5.5784   -3.5558    0.0000 C   0  0  0  0  0  0  0  0  0  0  0  0
   -5.1659   -2.8414    0.0000 O   0  0  0  0  0  0  0  0  0  0  0  0
   -5.5784   -2.1269    0.0000 C   0  0  0  0  0  0  0  0  0  0  0  0
   -6.4034   -2.1269    0.0000 N   0  0  0  0  0  0  0  0  0  0  0  0
   -6.8159   -1.4124    0.0000 C   0  0  0  0  0  0  0  0  0  0  0  0
   -6.4034   -0.6979    0.0000 C   0  0  0  0  0  0  0  0  0  0  0  0
   -5.5784   -0.6979    0.0000 N   0  0  0  0  0  0  0  0  0  0  0  0
   -5.1659   -1.4124    0.0000 C   0  0  0  0  0  0  0  0  0  0  0  0
   -4.3409   -1.4124    0.0000 N   0  0  0  0  0  0  0  0  0  0  0  0
   -3.9284   -0.6979    0.0000 C   0  0  0  0  0  0  0  0  0  0  0  0
   -4.3409    0.0165    0.0000 O   0  0  0  0  0  0  0  0  0  0  0  0
   -3.1034   -0.6979    0.0000 C   0  0  0  0  0  0  0  0  0  0  0  0
   -2.6909    0.0165    0.0000 C   0  0  0  0  0  0  0  0  0  0  0  0
   -1.8659    0.0165    0.0000 C   0  0  0  0  0  0  0  0  0  0  0  0
   -1.4534    0.7310    0.0000 F   0  0  0  0  0  0  0  0  0  0  0  0
   -1.4534   -0.6979    0.0000 C   0  0  0  0  0  0  0  0  0  0  0  0
   -0.6284   -0.6979    0.0000 N   0  0  0  0  0  0  0  0  0  0  0  0
   -0.1435   -1.3654    0.0000 N   0  0  0  0  0  0  0  0  0  0  0  0
    0.6411   -1.1104    0.0000 C   0  0  0  0  0  0  0  0  0  0  0  0
    0.6411   -0.2854    0.0000 N   0  0  0  0  0  0  0  0  0  0  0  0
   -0.1435   -0.0305    0.0000 C   0  0  0  0  0  0  0  0  0  0  0  0
   -0.3984    0.7541    0.0000 O   0  0  0  0  0  0  0  0  0  0  0  0
    1.3556    0.1271    0.0000 C   0  0  0  0  0  0  0  0  0  0  0  0
    2.0701   -0.2854    0.0000 C   0  0  0  0  0  0  0  0  0  0  0  0
    2.0701   -1.1104    0.0000 C   0  0  0  0  0  0  0  0  0  0  0  0
    1.3556   -1.5229    0.0000 C   0  0  0  0  0  0  0  0  0  0  0  0
   -1.8659   -1.4124    0.0000 C   0  0  0  0  0  0  0  0  0  0  0  0
   -2.6909   -1.4124    0.0000 C   0  0  0  0  0  0  0  0  0  0  0  0
   -3.1034   -2.1269    0.0000 O   0  0  0  0  0  0  0  0  0  0  0  0
   -2.6909   -2.8414    0.0000 C   0  0  0  0  0  0  0  0  0  0  0  0
   -1.8659   -2.8414    0.0000 C   0  0  0  0  0  0  0  0  0  0  0  0
   -3.1034   -3.5558    0.0000 C   0  0  0  0  0  0  0  0  0  0  0  0
   -2.6909   -4.2703    0.0000 C   0  0  0  0  0  0  0  0  0  0  0  0
   -3.1034   -4.9848    0.0000 C   0  0  0  0  0  0  0  0  0  0  0  0
   -3.9284   -4.9848    0.0000 C   0  0  0  0  0  0  0  0  0  0  0  0
   -4.3409   -4.2703    0.0000 C   0  0  0  0  0  0  0  0  0  0  0  0
   -3.9284   -3.5558    0.0000 C   0  0  0  0  0  0  0  0  0  0  0  0
  1  2  1  0  0  0  0
  2  3  1  0  0  0  0
  3  4  4  0  0  0  0
  4  5  4  0  0  0  0
  5  6  4  0  0  0  0
  6  7  4  0  0  0  0
  7  8  4  0  0  0  0
  3  8  4  0  0  0  0
  8  9  1  0  0  0  0
  9 10  1  0  0  0  0
 10 11  2  0  0  0  0
 10 12  1  0  0  0  0
 12 13  4  0  0  0  0
 13 14  4  0  0  0  0
 14 15  1  0  0  0  0
 14 16  4  0  0  0  0
 16 17  1  0  0  0  0
 17 18  4  0  0  0  0
 18 19  4  0  0  0  0
 19 20  4  0  0  0  0
 20 21  4  0  0  0  0
 17 21  4  0  0  0  0
 21 22  2  0  0  0  0
 20 23  1  0  0  0  0
 23 24  1  0  0  0  0
 24 25  1  0  0  0  0
 25 26  1  0  0  0  0
 19 26  1  0  0  0  0
 16 27  4  0  0  0  0
 27 28  4  0  0  0  0
 12 28  4  0  0  0  0
 28 29  1  0  0  0  0
 29 30  1  0  0  0  0
 30 31  1  0  0  0  0
 30 32  1  0  0  0  0
 32 33  1  0  0  0  0
 33 34  1  0  0  0  0
 34 35  1  0  0  0  0
 35 36  1  0  0  0  0
 36 37  1  0  0  0  0
 32 37  1  0  0  0  0
M  END
> <IC50(uM)>
0.15

> <Outcome>
1.0

> <BindingDB ID>
1020512

> <BindingDB MonomerID>
490460

> <BindingDB Ligand Name>
2-[(1S)-1-cyclohexylethoxy]-5-fluoro-N-(3-methoxypyrazin-2-yl)-4-(3-oxo-5,6,7,8-tetrahydro[1,2,4]triazolo[4,3-a]pyridin-2(3H)-yl)benzamide::US10968216, Example 128

> <Curation/DataSource>
US Patent

> <Article DOI>
?

> <PMID>
?

> <Patent Number>
US10968216

> <Authors>
Gradl, SN; Nguyen, D; Eis, K; Gunther, J; Stellfeld, T; Janzer, A; Christian, S; Mueller, T; Sheikh, SE; Zhou, HJ; Zhao, C; Sykes, DB; Ferrara, SJ; Liu, K; Herbert, SA; Merz, C; Niehues, M; Nising, CF; Schafer, M; Zimmermann, K; Knablein, J; Thede, K; Faupel, T

> <Link to Ligand in BindingDB>
http://www.bindingdb.org/bind/chemsearch/marvin/MolStructure.jsp?monomerid=490460

> <Link to Ligand-Target Pair in BindingDB>
http://www.bindingdb.org/jsp/dbsearch/PrimarySearch_ki.jsp?energyterm=kJ/mole&tag=r21&monomerid=490460&enzyme=Dihydroorotate+dehydrogenase&column=ki&startPg=0&Increment=50&submit=Search

> <PubChem CID>
134474489

> <PubChem SID>
447117187

$$$$

  Mrv2115 07222212352D          

 30 33  0  0  0  0            999 V2000
    4.0668    2.3479    0.0000 C   0  0  0  0  0  0  0  0  0  0  0  0
    3.3523    1.9354    0.0000 C   0  0  0  0  0  0  0  0  0  0  0  0
    3.3523    1.1104    0.0000 C   0  0  0  0  0  0  0  0  0  0  0  0
    2.6378    0.6979    0.0000 C   0  0  0  0  0  0  0  0  0  0  0  0
    2.6378   -0.1271    0.0000 C   0  0  0  0  0  0  0  0  0  0  0  0
    1.9233   -0.5396    0.0000 O   0  0  0  0  0  0  0  0  0  0  0  0
    3.3523   -0.5396    0.0000 O   0  0  0  0  0  0  0  0  0  0  0  0
    1.9233    1.1104    0.0000 C   0  0  0  0  0  0  0  0  0  0  0  0
    1.1387    0.8555    0.0000 N   0  0  0  0  0  0  0  0  0  0  0  0
    0.6538    1.5229    0.0000 C   0  0  0  0  0  0  0  0  0  0  0  0
   -0.1712    1.5229    0.0000 C   0  0  0  0  0  0  0  0  0  0  0  0
   -0.5837    0.8085    0.0000 C   0  0  0  0  0  0  0  0  0  0  0  0
   -0.1712    0.0940    0.0000 F   0  0  0  0  0  0  0  0  0  0  0  0
   -1.4087    0.8085    0.0000 C   0  0  0  0  0  0  0  0  0  0  0  0
   -1.8212    0.0940    0.0000 F   0  0  0  0  0  0  0  0  0  0  0  0
   -1.8212    1.5229    0.0000 C   0  0  0  0  0  0  0  0  0  0  0  0
   -2.6462    1.5229    0.0000 C   0  0  0  0  0  0  0  0  0  0  0  0
   -3.0587    0.8085    0.0000 C   0  0  0  0  0  0  0  0  0  0  0  0
   -3.8837    0.8085    0.0000 C   0  0  0  0  0  0  0  0  0  0  0  0
   -4.2962    1.5229    0.0000 C   0  0  0  0  0  0  0  0  0  0  0  0
   -3.8837    2.2374    0.0000 C   0  0  0  0  0  0  0  0  0  0  0  0
   -3.0587    2.2374    0.0000 C   0  0  0  0  0  0  0  0  0  0  0  0
   -2.6462    2.9519    0.0000 F   0  0  0  0  0  0  0  0  0  0  0  0
   -1.4087    2.2374    0.0000 C   0  0  0  0  0  0  0  0  0  0  0  0
   -1.8212    2.9519    0.0000 F   0  0  0  0  0  0  0  0  0  0  0  0
   -0.5837    2.2374    0.0000 C   0  0  0  0  0  0  0  0  0  0  0  0
   -0.1712    2.9519    0.0000 F   0  0  0  0  0  0  0  0  0  0  0  0
    1.1387    2.1904    0.0000 N   0  0  0  0  0  0  0  0  0  0  0  0
    1.9233    1.9354    0.0000 C   0  0  0  0  0  0  0  0  0  0  0  0
    2.6378    2.3479    0.0000 C   0  0  0  0  0  0  0  0  0  0  0  0
  1  2  1  0  0  0  0
  2  3  4  0  0  0  0
  3  4  4  0  0  0  0
  4  5  1  0  0  0  0
  5  6  2  0  0  0  0
  5  7  1  0  0  0  0
  4  8  4  0  0  0  0
  8  9  4  0  0  0  0
  9 10  4  0  0  0  0
 10 11  1  0  0  0  0
 11 12  4  0  0  0  0
 12 13  1  0  0  0  0
 12 14  4  0  0  0  0
 14 15  1  0  0  0  0
 14 16  4  0  0  0  0
 16 17  1  0  0  0  0
 17 18  4  0  0  0  0
 18 19  4  0  0  0  0
 19 20  4  0  0  0  0
 20 21  4  0  0  0  0
 21 22  4  0  0  0  0
 17 22  4  0  0  0  0
 22 23  1  0  0  0  0
 16 24  4  0  0  0  0
 24 25  1  0  0  0  0
 24 26  4  0  0  0  0
 11 26  4  0  0  0  0
 26 27  1  0  0  0  0
 10 28  4  0  0  0  0
 28 29  4  0  0  0  0
  8 29  4  0  0  0  0
 29 30  4  0  0  0  0
  2 30  4  0  0  0  0
M  STY  1   1 DAT
M  SAL   1  1  28
M  SDT   1 MRV_IMPLICIT_H                                        
M  SDD   1     0.5304   -0.4125    DR    ALL  0       0  
M  SED   1 IMPL_H1
M  END
> <IC50(uM)>
0.0034999999999999996

> <Outcome>
1.0

> <BindingDB ID>
297842

> <BindingDB MonomerID>
155498

> <BindingDB Ligand Name>
US9006454, I140

> <Curation/DataSource>
US Patent

> <Article DOI>
?

> <PMID>
?

> <Patent Number>
US9006454

> <Authors>
Thunuguntla, SS; Subramanya, H; Kunnam, SR; Sanivaru Vijay, SR; Bingi, C; Kusanur, R; Schwarz, M; Arlt, M

> <Link to Ligand in BindingDB>
http://www.bindingdb.org/bind/chemsearch/marvin/MolStructure.jsp?monomerid=155498

> <Link to Ligand-Target Pair in BindingDB>
http://www.bindingdb.org/jsp/dbsearch/PrimarySearch_ki.jsp?energyterm=kJ/mole&tag=r21&monomerid=155498&enzyme=Dihydroorotate+dehydrogenase&column=ki&startPg=0&Increment=50&submit=Search

> <PubChem CID>
58073759

> <PubChem SID>
253658435

$$$$

  Mrv2115 07222212352D          

 32 36  0  0  0  0            999 V2000
   -0.1712   -0.6979    0.0000 C   0  0  0  0  0  0  0  0  0  0  0  0
    0.6538   -0.6979    0.0000 N   0  0  0  0  0  0  0  0  0  0  0  0
    1.1387   -0.0305    0.0000 N   0  0  0  0  0  0  0  0  0  0  0  0
    1.9233   -0.2854    0.0000 C   0  0  0  0  0  0  0  0  0  0  0  0
    2.6378    0.1271    0.0000 C   0  0  0  0  0  0  0  0  0  0  0  0
    3.3523   -0.2854    0.0000 C   0  0  0  0  0  0  0  0  0  0  0  0
    4.0668    0.1271    0.0000 C   0  0  0  0  0  0  0  0  0  0  0  0
    4.0668    0.9521    0.0000 C   0  0  0  0  0  0  0  0  0  0  0  0
    4.7812    1.3646    0.0000 C   0  0  0  0  0  0  0  0  0  0  0  0
    5.4957    0.9521    0.0000 C   0  0  0  0  0  0  0  0  0  0  0  0
    6.2102    1.3646    0.0000 C   0  0  0  0  0  0  0  0  0  0  0  0
    6.2102    2.1896    0.0000 C   0  0  0  0  0  0  0  0  0  0  0  0
    6.9246    2.6021    0.0000 C   0  0  0  0  0  0  0  0  0  0  0  0
    7.6391    2.1896    0.0000 C   0  0  0  0  0  0  0  0  0  0  0  0
    7.6391    1.3646    0.0000 C   0  0  0  0  0  0  0  0  0  0  0  0
    6.9246    0.9521    0.0000 C   0  0  0  0  0  0  0  0  0  0  0  0
    6.9246    0.1271    0.0000 C   0  0  0  0  0  0  0  0  0  0  0  0
    7.6391   -0.2854    0.0000 N   0  0  0  0  0  0  0  0  0  0  0  0
    8.3536    0.1271    0.0000 C   0  0  0  0  0  0  0  0  0  0  0  0
    9.0681   -0.2854    0.0000 C   0  0  0  0  0  0  0  0  0  0  0  0
    9.0681   -1.1104    0.0000 O   0  0  0  0  0  0  0  0  0  0  0  0
    8.3536   -1.5229    0.0000 C   0  0  0  0  0  0  0  0  0  0  0  0
    7.6391   -1.1104    0.0000 C   0  0  0  0  0  0  0  0  0  0  0  0
    5.4957    0.1271    0.0000 C   0  0  0  0  0  0  0  0  0  0  0  0
    4.7812   -0.2854    0.0000 C   0  0  0  0  0  0  0  0  0  0  0  0
    3.3523   -1.1104    0.0000 C   0  0  0  0  0  0  0  0  0  0  0  0
    2.6378   -1.5229    0.0000 C   0  0  0  0  0  0  0  0  0  0  0  0
    2.6378   -2.3479    0.0000 C   0  0  0  0  0  0  0  0  0  0  0  0
    1.9233   -2.7604    0.0000 O   0  0  0  0  0  0  0  0  0  0  0  0
    3.3523   -2.7604    0.0000 O   0  0  0  0  0  0  0  0  0  0  0  0
    1.9233   -1.1104    0.0000 C   0  0  0  0  0  0  0  0  0  0  0  0
    1.1387   -1.3654    0.0000 N   0  0  0  0  0  0  0  0  0  0  0  0
  1  2  1  0  0  0  0
  2  3  4  0  0  0  0
  3  4  4  0  0  0  0
  4  5  4  0  0  0  0
  5  6  4  0  0  0  0
  6  7  1  0  0  0  0
  7  8  4  0  0  0  0
  8  9  4  0  0  0  0
  9 10  4  0  0  0  0
 10 11  1  0  0  0  0
 11 12  4  0  0  0  0
 12 13  4  0  0  0  0
 13 14  4  0  0  0  0
 14 15  4  0  0  0  0
 15 16  4  0  0  0  0
 11 16  4  0  0  0  0
 16 17  1  0  0  0  0
 17 18  1  0  0  0  0
 18 19  1  0  0  0  0
 19 20  1  0  0  0  0
 20 21  1  0  0  0  0
 21 22  1  0  0  0  0
 22 23  1  0  0  0  0
 18 23  1  0  0  0  0
 10 24  4  0  0  0  0
 24 25  4  0  0  0  0
  7 25  4  0  0  0  0
  6 26  4  0  0  0  0
 26 27  4  0  0  0  0
 27 28  1  0  0  0  0
 28 29  2  0  0  0  0
 28 30  1  0  0  0  0
 27 31  4  0  0  0  0
  4 31  4  0  0  0  0
 31 32  4  0  0  0  0
  2 32  4  0  0  0  0
M  END
> <IC50(uM)>
1.0

> <Outcome>
1.0

> <BindingDB ID>
1100180

> <BindingDB MonomerID>
520639

> <BindingDB Ligand Name>
2-methyl-6-(2'-(morpholinomethyl)-[1,1'-biphenyl]-4-yl)-2H-benzo[d][1,2,3]triazole- 4-carboxylic acid;::US11147801, Compound 26

> <Curation/DataSource>
US Patent

> <Article DOI>
?

> <PMID>
?

> <Patent Number>
US11147801

> <Authors>
Nellore, K; Hosahalli, S

> <Link to Ligand in BindingDB>
http://www.bindingdb.org/bind/chemsearch/marvin/MolStructure.jsp?monomerid=520639

> <Link to Ligand-Target Pair in BindingDB>
http://www.bindingdb.org/jsp/dbsearch/PrimarySearch_ki.jsp?energyterm=kJ/mole&tag=r21&monomerid=520639&enzyme=Dihydroorotate+dehydrogenase&column=ki&startPg=0&Increment=50&submit=Search

> <PubChem CID>
?

> <PubChem SID>
?

$$$$

  Mrv2115 07222212352D          

 22 25  0  0  0  0            999 V2000
    3.3523   -0.2854    0.0000 O   0  0  0  0  0  0  0  0  0  0  0  0
    3.3523   -1.1104    0.0000 C   0  0  0  0  0  0  0  0  0  0  0  0
    4.0668   -1.5229    0.0000 C   0  0  0  0  0  0  0  0  0  0  0  0
    4.7812   -1.1104    0.0000 C   0  0  0  0  0  0  0  0  0  0  0  0
    5.4957   -1.5229    0.0000 C   0  0  0  0  0  0  0  0  0  0  0  0
    5.4957   -2.3479    0.0000 C   0  0  0  0  0  0  0  0  0  0  0  0
    4.7812   -2.7604    0.0000 C   0  0  0  0  0  0  0  0  0  0  0  0
    4.0668   -2.3479    0.0000 C   0  0  0  0  0  0  0  0  0  0  0  0
    3.3523   -2.7604    0.0000 C   0  0  0  0  0  0  0  0  0  0  0  0
    3.3523   -3.5854    0.0000 O   0  0  0  0  0  0  0  0  0  0  0  0
    2.6378   -2.3479    0.0000 C   0  0  0  0  0  0  0  0  0  0  0  0
    2.6378   -1.5229    0.0000 C   0  0  0  0  0  0  0  0  0  0  0  0
    1.8532   -1.2680    0.0000 N   0  0  0  0  0  0  0  0  0  0  0  0
    1.3683   -1.9354    0.0000 N   0  0  0  0  0  0  0  0  0  0  0  0
    1.8532   -2.6029    0.0000 N   0  0  0  0  0  0  0  0  0  0  0  0
    1.5983   -3.3875    0.0000 C   0  0  0  0  0  0  0  0  0  0  0  0
    2.1503   -4.0006    0.0000 C   0  0  0  0  0  0  0  0  0  0  0  0
    1.8953   -4.7852    0.0000 C   0  0  0  0  0  0  0  0  0  0  0  0
    1.0884   -4.9567    0.0000 C   0  0  0  0  0  0  0  0  0  0  0  0
    0.8334   -5.7414    0.0000 Cl  0  0  0  0  0  0  0  0  0  0  0  0
    0.5363   -4.3437    0.0000 N   0  0  0  0  0  0  0  0  0  0  0  0
    0.7913   -3.5590    0.0000 C   0  0  0  0  0  0  0  0  0  0  0  0
  1  2  2  0  0  0  0
  2  3  1  0  0  0  0
  3  4  4  0  0  0  0
  4  5  4  0  0  0  0
  5  6  4  0  0  0  0
  6  7  4  0  0  0  0
  7  8  4  0  0  0  0
  3  8  4  0  0  0  0
  8  9  1  0  0  0  0
  9 10  2  0  0  0  0
  9 11  1  0  0  0  0
 11 12  4  0  0  0  0
  2 12  1  0  0  0  0
 12 13  4  0  0  0  0
 13 14  4  0  0  0  0
 14 15  4  0  0  0  0
 11 15  4  0  0  0  0
 15 16  1  0  0  0  0
 16 17  4  0  0  0  0
 17 18  4  0  0  0  0
 18 19  4  0  0  0  0
 19 20  1  0  0  0  0
 19 21  4  0  0  0  0
 21 22  4  0  0  0  0
 16 22  4  0  0  0  0
M  END
> <IC50(uM)>
1.0

> <Outcome>
1.0

> <BindingDB ID>
51338171

> <BindingDB MonomerID>
50541645

> <BindingDB Ligand Name>
CHEMBL4642346

> <Curation/DataSource>
ChEMBL

> <Article DOI>
10.1021/acs.jmedchem.0c00512

> <PMID>
32496056

> <Patent Number>
?

> <Authors>
Zuo, Z; Liu, X; Qian, X; Zeng, T; Sang, N; Liu, H; Zhou, Y; Tao, L; Zhou, X; Su, N; Yu, Y; Chen, Q; Luo, Y; Zhao, Y

> <Link to Ligand in BindingDB>
http://www.bindingdb.org/bind/chemsearch/marvin/MolStructure.jsp?monomerid=50541645

> <Link to Ligand-Target Pair in BindingDB>
http://www.bindingdb.org/jsp/dbsearch/PrimarySearch_ki.jsp?energyterm=kJ/mole&tag=r21&monomerid=50541645&enzyme=Dihydroorotate+dehydrogenase&column=ki&startPg=0&Increment=50&submit=Search

> <PubChem CID>
156017103

> <PubChem SID>
442143208

$$$$

  Mrv2115 07222212352D          

 29 31  0  0  0  0            999 V2000
    1.4289   -4.9500    0.0000 O   0  0  0  0  0  0  0  0  0  0  0  0
    2.1434   -5.3625    0.0000 C   0  0  0  0  0  0  0  0  0  0  0  0
    2.8579   -4.9500    0.0000 O   0  0  0  0  0  0  0  0  0  0  0  0
    2.1434   -6.1875    0.0000 C   0  0  0  0  0  0  0  0  0  0  0  0
    2.8109   -6.6724    0.0000 C   0  0  0  0  0  0  0  0  0  0  0  0
    3.5955   -6.4175    0.0000 C   0  0  0  0  0  0  0  0  0  0  0  0
    4.2086   -6.9695    0.0000 O   0  0  0  0  0  0  0  0  0  0  0  0
    3.7670   -5.6105    0.0000 N   0  0  0  0  0  0  0  0  0  0  0  0
    4.5516   -5.3556    0.0000 C   0  0  0  0  0  0  0  0  0  0  0  0
    4.7231   -4.5486    0.0000 C   0  0  0  0  0  0  0  0  0  0  0  0
    5.5078   -4.2937    0.0000 C   0  0  0  0  0  0  0  0  0  0  0  0
    5.6793   -3.4867    0.0000 Br  0  0  0  0  0  0  0  0  0  0  0  0
    6.1209   -4.8457    0.0000 C   0  0  0  0  0  0  0  0  0  0  0  0
    6.9055   -4.5908    0.0000 O   0  0  0  0  0  0  0  0  0  0  0  0
    7.0770   -3.7838    0.0000 C   0  0  0  0  0  0  0  0  0  0  0  0
    7.8616   -3.5288    0.0000 C   0  0  0  0  0  0  0  0  0  0  0  0
    8.0332   -2.7219    0.0000 C   0  0  0  0  0  0  0  0  0  0  0  0
    7.4201   -2.1698    0.0000 F   0  0  0  0  0  0  0  0  0  0  0  0
    8.8178   -2.4669    0.0000 C   0  0  0  0  0  0  0  0  0  0  0  0
    9.4309   -3.0190    0.0000 C   0  0  0  0  0  0  0  0  0  0  0  0
    9.2594   -3.8259    0.0000 C   0  0  0  0  0  0  0  0  0  0  0  0
    8.4747   -4.0809    0.0000 C   0  0  0  0  0  0  0  0  0  0  0  0
    8.3032   -4.8878    0.0000 Cl  0  0  0  0  0  0  0  0  0  0  0  0
    5.9493   -5.6527    0.0000 C   0  0  0  0  0  0  0  0  0  0  0  0
    6.5624   -6.2047    0.0000 Br  0  0  0  0  0  0  0  0  0  0  0  0
    5.1647   -5.9076    0.0000 C   0  0  0  0  0  0  0  0  0  0  0  0
    2.5559   -7.4570    0.0000 C   0  0  0  0  0  0  0  0  0  0  0  0
    1.7309   -7.4570    0.0000 S   0  0  0  0  0  0  0  0  0  0  0  0
    1.4760   -6.6724    0.0000 C   0  0  0  0  0  0  0  0  0  0  0  0
  1  2  2  0  0  0  0
  2  3  1  0  0  0  0
  2  4  1  0  0  0  0
  4  5  2  0  0  0  0
  5  6  1  0  0  0  0
  6  7  2  0  0  0  0
  6  8  1  0  0  0  0
  8  9  1  0  0  0  0
  9 10  4  0  0  0  0
 10 11  4  0  0  0  0
 11 12  1  0  0  0  0
 11 13  4  0  0  0  0
 13 14  1  0  0  0  0
 14 15  1  0  0  0  0
 15 16  1  0  0  0  0
 16 17  4  0  0  0  0
 17 18  1  0  0  0  0
 17 19  4  0  0  0  0
 19 20  4  0  0  0  0
 20 21  4  0  0  0  0
 21 22  4  0  0  0  0
 16 22  4  0  0  0  0
 22 23  1  0  0  0  0
 13 24  4  0  0  0  0
 24 25  1  0  0  0  0
 24 26  4  0  0  0  0
  9 26  4  0  0  0  0
  5 27  1  0  0  0  0
 27 28  1  0  0  0  0
 28 29  1  0  0  0  0
  4 29  1  0  0  0  0
M  END
> <IC50(uM)>
0.105

> <Outcome>
1.0

> <BindingDB ID>
50319879

> <BindingDB MonomerID>
50173148

> <BindingDB Ligand Name>
4-[3,5-Dibromo-4-(2-chloro-6-fluoro-benzyloxy)-phenylcarbamoyl]-2,5-dihydro-thiophene-3-carboxylic acid::CHEMBL194776

> <Curation/DataSource>
ChEMBL

> <Article DOI>
10.1016/j.bmcl.2005.07.053

> <PMID>
16143532

> <Patent Number>
?

> <Authors>
Leban, J; Kralik, M; Mies, J; Gassen, M; Tentschert, K; Baumgartner, R

> <Link to Ligand in BindingDB>
http://www.bindingdb.org/bind/chemsearch/marvin/MolStructure.jsp?monomerid=50173148

> <Link to Ligand-Target Pair in BindingDB>
http://www.bindingdb.org/jsp/dbsearch/PrimarySearch_ki.jsp?energyterm=kJ/mole&tag=r21&monomerid=50173148&enzyme=Dihydroorotate+dehydrogenase&column=ki&startPg=0&Increment=50&submit=Search

> <PubChem CID>
21084857

> <PubChem SID>
104059119

$$$$

  Mrv2115 07222212352D          

 34 36  0  0  0  0            999 V2000
    0.7145   -3.7125    0.0000 C   0  0  0  0  0  0  0  0  0  0  0  0
    1.4289   -4.1250    0.0000 C   0  0  0  0  0  0  0  0  0  0  0  0
    1.4289   -4.9500    0.0000 C   0  0  0  0  0  0  0  0  0  0  0  0
    0.7615   -5.4349    0.0000 N   0  0  0  0  0  0  0  0  0  0  0  0
    1.0164   -6.2195    0.0000 N   0  0  0  0  0  0  0  0  0  0  0  0
    0.5315   -6.8870    0.0000 C   0  0  0  0  0  0  0  0  0  0  0  0
    0.8671   -7.6407    0.0000 C   0  0  0  0  0  0  0  0  0  0  0  0
    0.3822   -8.3081    0.0000 C   0  0  0  0  0  0  0  0  0  0  0  0
    0.7177   -9.0618    0.0000 O   0  0  0  0  0  0  0  0  0  0  0  0
    1.5382   -9.1480    0.0000 C   0  0  0  0  0  0  0  0  0  0  0  0
    2.0231   -8.4806    0.0000 C   0  0  0  0  0  0  0  0  0  0  0  0
    1.8738   -9.9017    0.0000 C   0  0  0  0  0  0  0  0  0  0  0  0
    1.1201  -10.2372    0.0000 F   0  0  0  0  0  0  0  0  0  0  0  0
    2.6274   -9.5661    0.0000 F   0  0  0  0  0  0  0  0  0  0  0  0
    2.2093  -10.6554    0.0000 F   0  0  0  0  0  0  0  0  0  0  0  0
   -0.4383   -8.2219    0.0000 C   0  0  0  0  0  0  0  0  0  0  0  0
   -0.9232   -8.8893    0.0000 C   0  0  0  0  0  0  0  0  0  0  0  0
   -1.7437   -8.8031    0.0000 O   0  0  0  0  0  0  0  0  0  0  0  0
   -0.5877   -9.6430    0.0000 N   0  0  0  0  0  0  0  0  0  0  0  0
   -1.0726  -10.3104    0.0000 C   0  0  0  0  0  0  0  0  0  0  0  0
   -0.7371  -11.0641    0.0000 C   0  0  0  0  0  0  0  0  0  0  0  0
    0.0834  -11.1503    0.0000 C   0  0  0  0  0  0  0  0  0  0  0  0
   -1.2220  -11.7315    0.0000 C   0  0  0  0  0  0  0  0  0  0  0  0
   -2.0425  -11.6453    0.0000 C   0  0  0  0  0  0  0  0  0  0  0  0
   -2.3780  -10.8916    0.0000 C   0  0  0  0  0  0  0  0  0  0  0  0
   -1.8931  -10.2242    0.0000 C   0  0  0  0  0  0  0  0  0  0  0  0
   -2.2287   -9.4705    0.0000 F   0  0  0  0  0  0  0  0  0  0  0  0
   -0.7739   -7.4682    0.0000 C   0  0  0  0  0  0  0  0  0  0  0  0
   -0.2890   -6.8007    0.0000 C   0  0  0  0  0  0  0  0  0  0  0  0
   -0.6245   -6.0471    0.0000 F   0  0  0  0  0  0  0  0  0  0  0  0
    1.8414   -6.2195    0.0000 C   0  0  0  0  0  0  0  0  0  0  0  0
    2.3264   -6.8870    0.0000 O   0  0  0  0  0  0  0  0  0  0  0  0
    2.0964   -5.4349    0.0000 N   0  0  0  0  0  0  0  0  0  0  0  0
    2.8810   -5.1800    0.0000 C   0  0  0  0  0  0  0  0  0  0  0  0
  1  2  1  0  0  0  0
  2  3  1  0  0  0  0
  3  4  4  0  0  0  0
  4  5  4  0  0  0  0
  5  6  1  0  0  0  0
  6  7  4  0  0  0  0
  7  8  4  0  0  0  0
  8  9  1  0  0  0  0
  9 10  1  0  0  0  0
 10 11  1  0  0  0  0
 10 12  1  0  0  0  0
 12 13  1  0  0  0  0
 12 14  1  0  0  0  0
 12 15  1  0  0  0  0
  8 16  4  0  0  0  0
 16 17  1  0  0  0  0
 17 18  2  0  0  0  0
 17 19  1  0  0  0  0
 19 20  1  0  0  0  0
 20 21  4  0  0  0  0
 21 22  1  0  0  0  0
 21 23  4  0  0  0  0
 23 24  4  0  0  0  0
 24 25  4  0  0  0  0
 25 26  4  0  0  0  0
 20 26  4  0  0  0  0
 26 27  1  0  0  0  0
 16 28  4  0  0  0  0
 28 29  4  0  0  0  0
  6 29  4  0  0  0  0
 29 30  1  0  0  0  0
  5 31  4  0  0  0  0
 31 32  2  0  0  0  0
 31 33  4  0  0  0  0
  3 33  4  0  0  0  0
 33 34  1  0  0  0  0
M  END
> <IC50(uM)>
0.00775

> <Outcome>
1.0

> <BindingDB ID>
1098691; 972537

> <BindingDB MonomerID>
470412

> <BindingDB Ligand Name>
4-(3-ethyl-4-methyl-5-oxo-4,5-dihydro-1H-1,2,4-triazol-1-yl)-5-fluoro-N-(2-fluoro-6-methylphenyl)-2-{[(2S)-1,1,1-trifluoropropan-2-yl]oxy}benzamide::US10815215, Example 71::US11130745, Example 71; 4-(3-ethyl-4-methyl-5-oxo-4,5-dihydro-1H-1,2,4-triazol-1-yl)-5-fluoro-N-(2-fluoro-6-methylphenyl)-2-{[(2S)-1,1,1-trifluoropropan-2-yl]oxy}benzamide::US10815215, Example 71

> <Curation/DataSource>
US Patent

> <Article DOI>
?

> <PMID>
?

> <Patent Number>
US11130745; US10815215

> <Authors>
Gradl, SN; Nguyen, D; Eis, K; Gunther, J; Stellfeld, T; Janzer, A; Christian, S; Muller, T; Sheikh, SE; Sykes, DB; Ferrara, SJ; Krober, M; Merz, C; Niehues, M; Schafer, M; Zimmermann, K; Nising, CF; Gradl, SN; Nguyen, D; Eis, K; Gunther, J; Stellfeld, T; Janzer, A; Christian, S; Muller, T; Sheikh, SE; Zhou, HJ; Zhao, C; Sykes, DB; Ferrara, SJ; Liu, K; Krober, M; Merz, C; Niehues, M; Schafer, M; Zimmermann, K; Nising, CF

> <Link to Ligand in BindingDB>
http://www.bindingdb.org/bind/chemsearch/marvin/MolStructure.jsp?monomerid=470412

> <Link to Ligand-Target Pair in BindingDB>
http://www.bindingdb.org/jsp/dbsearch/PrimarySearch_ki.jsp?energyterm=kJ/mole&tag=r21&monomerid=470412&enzyme=Dihydroorotate+dehydrogenase&column=ki&startPg=0&Increment=50&submit=Search

> <PubChem CID>
134470357

> <PubChem SID>
441609589

$$$$

  Mrv2115 07222212352D          

 32 35  0  0  0  0            999 V2000
   -2.0492    1.8319    0.0000 C   0  0  0  0  0  0  0  0  0  0  0  0
   -1.2288    1.7457    0.0000 C   0  0  0  0  0  0  0  0  0  0  0  0
   -0.8932    0.9920    0.0000 N   0  0  0  0  0  0  0  0  0  0  0  0
   -0.0862    0.8205    0.0000 N   0  0  0  0  0  0  0  0  0  0  0  0
    0.0000   -0.0000    0.0000 C   0  0  0  0  0  0  0  0  0  0  0  0
    0.7145   -0.4125    0.0000 C   0  0  0  0  0  0  0  0  0  0  0  0
    1.4289    0.0000    0.0000 C   0  0  0  0  0  0  0  0  0  0  0  0
    2.1434   -0.4125    0.0000 C   0  0  0  0  0  0  0  0  0  0  0  0
    2.8579    0.0000    0.0000 C   0  0  0  0  0  0  0  0  0  0  0  0
    2.8579    0.8250    0.0000 C   0  0  0  0  0  0  0  0  0  0  0  0
    3.5724    1.2375    0.0000 C   0  0  0  0  0  0  0  0  0  0  0  0
    2.1434    1.2375    0.0000 C   0  0  0  0  0  0  0  0  0  0  0  0
    3.5724   -0.4125    0.0000 C   0  0  0  0  0  0  0  0  0  0  0  0
    3.5724   -1.2375    0.0000 N   0  0  0  0  0  0  0  0  0  0  0  0
    4.2868   -1.6500    0.0000 C   0  0  0  0  0  0  0  0  0  0  0  0
    5.0013   -1.2375    0.0000 C   0  0  0  0  0  0  0  0  0  0  0  0
    5.7158   -1.6500    0.0000 C   0  0  0  0  0  0  0  0  0  0  0  0
    5.7158   -2.4750    0.0000 C   0  0  0  0  0  0  0  0  0  0  0  0
    5.0013   -2.8875    0.0000 C   0  0  0  0  0  0  0  0  0  0  0  0
    4.2868   -2.4750    0.0000 C   0  0  0  0  0  0  0  0  0  0  0  0
    3.5724   -2.8875    0.0000 C   0  0  0  0  0  0  0  0  0  0  0  0
    2.8579   -1.6500    0.0000 C   0  0  0  0  0  0  0  0  0  0  0  0
    2.8579   -2.4750    0.0000 O   0  0  0  0  0  0  0  0  0  0  0  0
    2.1434   -1.2375    0.0000 C   0  0  0  0  0  0  0  0  0  0  0  0
    1.4289   -1.6500    0.0000 C   0  0  0  0  0  0  0  0  0  0  0  0
    0.7145   -1.2375    0.0000 C   0  0  0  0  0  0  0  0  0  0  0  0
    0.0000   -1.6500    0.0000 F   0  0  0  0  0  0  0  0  0  0  0  0
   -0.7537   -0.3356    0.0000 N   0  0  0  0  0  0  0  0  0  0  0  0
   -1.3057    0.2775    0.0000 C   0  0  0  0  0  0  0  0  0  0  0  0
   -2.1262    0.1913    0.0000 C   0  0  0  0  0  0  0  0  0  0  0  0
   -2.6111    0.8587    0.0000 C   0  0  0  0  0  0  0  0  0  0  0  0
   -2.4617   -0.5624    0.0000 O   0  0  0  0  0  0  0  0  0  0  0  0
  1  2  1  0  0  0  0
  2  3  1  0  0  0  0
  3  4  4  0  0  0  0
  4  5  4  0  0  0  0
  5  6  1  0  0  0  0
  6  7  4  0  0  0  0
  7  8  4  0  0  0  0
  8  9  4  0  0  0  0
  9 10  1  0  0  0  0
 10 11  1  0  0  0  0
 10 12  1  0  0  0  0
  9 13  4  0  0  0  0
 13 14  4  0  0  0  0
 14 15  1  0  0  0  0
 15 16  4  0  0  0  0
 16 17  4  0  0  0  0
 17 18  4  0  0  0  0
 18 19  4  0  0  0  0
 19 20  4  0  0  0  0
 15 20  4  0  0  0  0
 20 21  1  0  0  0  0
 14 22  4  0  0  0  0
 22 23  2  0  0  0  0
 22 24  4  0  0  0  0
  8 24  4  0  0  0  0
 24 25  4  0  0  0  0
 25 26  4  0  0  0  0
  6 26  4  0  0  0  0
 26 27  1  0  0  0  0
  5 28  4  0  0  0  0
 28 29  4  0  0  0  0
  3 29  4  0  0  0  0
 29 30  1  0  0  0  0
 30 31  1  0  0  0  0
 30 32  1  0  0  0  0
M  END
> <IC50(uM)>
0.019

> <Outcome>
1.0

> <BindingDB ID>
1121390

> <BindingDB MonomerID>
530456

> <BindingDB Ligand Name>
6-(1-Ethyl-5-(1-hydroxyethyl)-1H-1,2,4-triazol-3-yl)-7-fluoro-4-isopropyl-2-(o- tolyl)isoquinolin-1(2H)-one.::WO2022070068, Example 28

> <Curation/DataSource>
Curated from the literature by BindingDB

> <Article DOI>
?

> <PMID>
WO2022070068

> <Patent Number>
?

> <Authors>
Lindsey, D; Scott, K; Zhuming, Z

> <Link to Ligand in BindingDB>
http://www.bindingdb.org/bind/chemsearch/marvin/MolStructure.jsp?monomerid=530456

> <Link to Ligand-Target Pair in BindingDB>
http://www.bindingdb.org/jsp/dbsearch/PrimarySearch_ki.jsp?energyterm=kJ/mole&tag=r21&monomerid=530456&enzyme=Dihydroorotate+dehydrogenase&column=ki&startPg=0&Increment=50&submit=Search

> <PubChem CID>
?

> <PubChem SID>
?

$$$$

  Mrv2115 07222212352D          

 37 41  0  0  0  0            999 V2000
    4.7079    3.7125    0.0000 C   0  0  0  0  0  0  0  0  0  0  0  0
    5.4223    3.3000    0.0000 O   0  0  0  0  0  0  0  0  0  0  0  0
    5.4223    2.4750    0.0000 C   0  0  0  0  0  0  0  0  0  0  0  0
    6.1368    2.0625    0.0000 C   0  0  0  0  0  0  0  0  0  0  0  0
    6.1368    1.2375    0.0000 C   0  0  0  0  0  0  0  0  0  0  0  0
    5.4223    0.8250    0.0000 C   0  0  0  0  0  0  0  0  0  0  0  0
    5.4223    0.0000    0.0000 C   0  0  0  0  0  0  0  0  0  0  0  0
    5.4223   -0.8250    0.0000 F   0  0  0  0  0  0  0  0  0  0  0  0
    6.2473    0.0000    0.0000 F   0  0  0  0  0  0  0  0  0  0  0  0
    4.5973    0.0000    0.0000 F   0  0  0  0  0  0  0  0  0  0  0  0
    4.7079    1.2375    0.0000 C   0  0  0  0  0  0  0  0  0  0  0  0
    4.7079    2.0625    0.0000 C   0  0  0  0  0  0  0  0  0  0  0  0
    3.9934    2.4750    0.0000 N   0  0  0  0  0  0  0  0  0  0  0  0
    3.2789    2.0625    0.0000 C   0  0  0  0  0  0  0  0  0  0  0  0
    2.5645    2.4750    0.0000 O   0  0  0  0  0  0  0  0  0  0  0  0
    3.2789    1.2375    0.0000 C   0  0  0  0  0  0  0  0  0  0  0  0
    3.9934    0.8250    0.0000 C   0  0  0  0  0  0  0  0  0  0  0  0
    3.9934    0.0000    0.0000 C   0  0  0  0  0  0  0  0  0  0  0  0
    3.2789   -0.4125    0.0000 C   0  0  0  0  0  0  0  0  0  0  0  0
    2.5645    0.0000    0.0000 C   0  0  0  0  0  0  0  0  0  0  0  0
    1.7798   -0.2549    0.0000 N   0  0  0  0  0  0  0  0  0  0  0  0
    1.2949    0.4125    0.0000 C   0  0  0  0  0  0  0  0  0  0  0  0
    0.4699    0.4125    0.0000 C   0  0  0  0  0  0  0  0  0  0  0  0
   -0.0150   -0.2549    0.0000 C   0  0  0  0  0  0  0  0  0  0  0  0
   -0.7996   -0.0000    0.0000 C   0  0  0  0  0  0  0  0  0  0  0  0
   -1.4671   -0.4849    0.0000 Br  0  0  0  0  0  0  0  0  0  0  0  0
   -0.7996    0.8250    0.0000 N   0  0  0  0  0  0  0  0  0  0  0  0
   -0.0150    1.0799    0.0000 N   0  0  0  0  0  0  0  0  0  0  0  0
    0.2399    1.8646    0.0000 C   0  0  0  0  0  0  0  0  0  0  0  0
    1.0469    2.0361    0.0000 N   0  0  0  0  0  0  0  0  0  0  0  0
    1.3018    2.8207    0.0000 C   0  0  0  0  0  0  0  0  0  0  0  0
    0.7498    3.4338    0.0000 C   0  0  0  0  0  0  0  0  0  0  0  0
   -0.0572    3.2623    0.0000 C   0  0  0  0  0  0  0  0  0  0  0  0
   -0.3121    2.4777    0.0000 C   0  0  0  0  0  0  0  0  0  0  0  0
   -1.1191    2.3061    0.0000 Cl  0  0  0  0  0  0  0  0  0  0  0  0
    1.7798    1.0799    0.0000 N   0  0  0  0  0  0  0  0  0  0  0  0
    2.5645    0.8250    0.0000 C   0  0  0  0  0  0  0  0  0  0  0  0
  1  2  1  0  0  0  0
  2  3  1  0  0  0  0
  3  4  4  0  0  0  0
  4  5  4  0  0  0  0
  5  6  4  0  0  0  0
  6  7  1  0  0  0  0
  7  8  1  0  0  0  0
  7  9  1  0  0  0  0
  7 10  1  0  0  0  0
  6 11  4  0  0  0  0
 11 12  4  0  0  0  0
  3 12  4  0  0  0  0
 12 13  1  0  0  0  0
 13 14  1  0  0  0  0
 14 15  2  0  0  0  0
 14 16  1  0  0  0  0
 16 17  4  0  0  0  0
 17 18  4  0  0  0  0
 18 19  4  0  0  0  0
 19 20  4  0  0  0  0
 20 21  4  0  0  0  0
 21 22  4  0  0  0  0
 22 23  1  0  0  0  0
 23 24  4  0  0  0  0
 24 25  4  0  0  0  0
 25 26  1  0  0  0  0
 25 27  4  0  0  0  0
 27 28  4  0  0  0  0
 23 28  4  0  0  0  0
 28 29  1  0  0  0  0
 29 30  4  0  0  0  0
 30 31  4  0  0  0  0
 31 32  4  0  0  0  0
 32 33  4  0  0  0  0
 33 34  4  0  0  0  0
 29 34  4  0  0  0  0
 34 35  1  0  0  0  0
 22 36  4  0  0  0  0
 36 37  4  0  0  0  0
 16 37  4  0  0  0  0
 20 37  4  0  0  0  0
M  STY  1   1 DAT
M  SAL   1  1  36
M  SDT   1 MRV_IMPLICIT_H                                        
M  SDD   1     0.5304   -0.4125    DR    ALL  0       0  
M  SED   1 IMPL_H1
M  END
> <IC50(uM)>
4.85

> <Outcome>
0.0

> <BindingDB ID>
50499498

> <BindingDB MonomerID>
50176139

> <BindingDB Ligand Name>
CHEMBL3809712

> <Curation/DataSource>
ChEMBL

> <Article DOI>
10.1016/j.bmcl.2016.05.016

> <PMID>
27220723

> <Patent Number>
?

> <Authors>
Li, J; Wu, D; Xu, X; Huang, J; Shao, X; Li, Z

> <Link to Ligand in BindingDB>
http://www.bindingdb.org/bind/chemsearch/marvin/MolStructure.jsp?monomerid=50176139

> <Link to Ligand-Target Pair in BindingDB>
http://www.bindingdb.org/jsp/dbsearch/PrimarySearch_ki.jsp?energyterm=kJ/mole&tag=r21&monomerid=50176139&enzyme=Dihydroorotate+dehydrogenase&column=ki&startPg=0&Increment=50&submit=Search

> <PubChem CID>
127044398

> <PubChem SID>
346549081

$$$$

  Mrv2115 07222212352D          

 35 39  0  0  0  0            999 V2000
    3.3523   -0.2854    0.0000 O   0  0  0  0  0  0  0  0  0  0  0  0
    3.3523   -1.1104    0.0000 C   0  0  0  0  0  0  0  0  0  0  0  0
    4.0668   -1.5229    0.0000 C   0  0  0  0  0  0  0  0  0  0  0  0
    4.7812   -1.1104    0.0000 C   0  0  0  0  0  0  0  0  0  0  0  0
    5.4957   -1.5229    0.0000 C   0  0  0  0  0  0  0  0  0  0  0  0
    5.4957   -2.3479    0.0000 C   0  0  0  0  0  0  0  0  0  0  0  0
    4.7812   -2.7604    0.0000 C   0  0  0  0  0  0  0  0  0  0  0  0
    4.0668   -2.3479    0.0000 C   0  0  0  0  0  0  0  0  0  0  0  0
    3.3523   -2.7604    0.0000 C   0  0  0  0  0  0  0  0  0  0  0  0
    3.3523   -3.5854    0.0000 O   0  0  0  0  0  0  0  0  0  0  0  0
    2.6378   -2.3479    0.0000 C   0  0  0  0  0  0  0  0  0  0  0  0
    2.6378   -1.5229    0.0000 C   0  0  0  0  0  0  0  0  0  0  0  0
    1.8532   -1.2680    0.0000 N   0  0  0  0  0  0  0  0  0  0  0  0
    1.3683   -1.9354    0.0000 N   0  0  0  0  0  0  0  0  0  0  0  0
    1.8532   -2.6029    0.0000 N   0  0  0  0  0  0  0  0  0  0  0  0
    1.5983   -3.3875    0.0000 C   0  0  0  0  0  0  0  0  0  0  0  0
    2.1503   -4.0006    0.0000 C   0  0  0  0  0  0  0  0  0  0  0  0
    1.8953   -4.7852    0.0000 C   0  0  0  0  0  0  0  0  0  0  0  0
    1.0884   -4.9567    0.0000 C   0  0  0  0  0  0  0  0  0  0  0  0
    0.8334   -5.7414    0.0000 C   0  0  0  0  0  0  0  0  0  0  0  0
    1.3855   -6.3545    0.0000 C   0  0  0  0  0  0  0  0  0  0  0  0
    1.1305   -7.1391    0.0000 C   0  0  0  0  0  0  0  0  0  0  0  0
    1.6826   -7.7522    0.0000 C   0  0  0  0  0  0  0  0  0  0  0  0
    2.2346   -8.3653    0.0000 F   0  0  0  0  0  0  0  0  0  0  0  0
    1.0695   -8.3042    0.0000 F   0  0  0  0  0  0  0  0  0  0  0  0
    2.2957   -7.2001    0.0000 F   0  0  0  0  0  0  0  0  0  0  0  0
    0.3236   -7.3106    0.0000 C   0  0  0  0  0  0  0  0  0  0  0  0
   -0.2285   -6.6975    0.0000 C   0  0  0  0  0  0  0  0  0  0  0  0
   -1.0354   -6.8690    0.0000 C   0  0  0  0  0  0  0  0  0  0  0  0
   -1.8424   -7.0406    0.0000 F   0  0  0  0  0  0  0  0  0  0  0  0
   -1.2070   -6.0621    0.0000 F   0  0  0  0  0  0  0  0  0  0  0  0
   -0.8639   -7.6760    0.0000 F   0  0  0  0  0  0  0  0  0  0  0  0
    0.0265   -5.9129    0.0000 C   0  0  0  0  0  0  0  0  0  0  0  0
    0.5363   -4.3437    0.0000 C   0  0  0  0  0  0  0  0  0  0  0  0
    0.7913   -3.5590    0.0000 C   0  0  0  0  0  0  0  0  0  0  0  0
  1  2  2  0  0  0  0
  2  3  1  0  0  0  0
  3  4  4  0  0  0  0
  4  5  4  0  0  0  0
  5  6  4  0  0  0  0
  6  7  4  0  0  0  0
  7  8  4  0  0  0  0
  3  8  4  0  0  0  0
  8  9  1  0  0  0  0
  9 10  2  0  0  0  0
  9 11  1  0  0  0  0
 11 12  4  0  0  0  0
  2 12  1  0  0  0  0
 12 13  4  0  0  0  0
 13 14  4  0  0  0  0
 14 15  4  0  0  0  0
 11 15  4  0  0  0  0
 15 16  1  0  0  0  0
 16 17  4  0  0  0  0
 17 18  4  0  0  0  0
 18 19  4  0  0  0  0
 19 20  1  0  0  0  0
 20 21  4  0  0  0  0
 21 22  4  0  0  0  0
 22 23  1  0  0  0  0
 23 24  1  0  0  0  0
 23 25  1  0  0  0  0
 23 26  1  0  0  0  0
 22 27  4  0  0  0  0
 27 28  4  0  0  0  0
 28 29  1  0  0  0  0
 29 30  1  0  0  0  0
 29 31  1  0  0  0  0
 29 32  1  0  0  0  0
 28 33  4  0  0  0  0
 20 33  4  0  0  0  0
 19 34  4  0  0  0  0
 34 35  4  0  0  0  0
 16 35  4  0  0  0  0
M  END
> <IC50(uM)>
1.0

> <Outcome>
1.0

> <BindingDB ID>
51338194

> <BindingDB MonomerID>
50541668

> <BindingDB Ligand Name>
CHEMBL4636629

> <Curation/DataSource>
ChEMBL

> <Article DOI>
10.1021/acs.jmedchem.0c00512

> <PMID>
32496056

> <Patent Number>
?

> <Authors>
Zuo, Z; Liu, X; Qian, X; Zeng, T; Sang, N; Liu, H; Zhou, Y; Tao, L; Zhou, X; Su, N; Yu, Y; Chen, Q; Luo, Y; Zhao, Y

> <Link to Ligand in BindingDB>
http://www.bindingdb.org/bind/chemsearch/marvin/MolStructure.jsp?monomerid=50541668

> <Link to Ligand-Target Pair in BindingDB>
http://www.bindingdb.org/jsp/dbsearch/PrimarySearch_ki.jsp?energyterm=kJ/mole&tag=r21&monomerid=50541668&enzyme=Dihydroorotate+dehydrogenase&column=ki&startPg=0&Increment=50&submit=Search

> <PubChem CID>
156012074

> <PubChem SID>
442143231

$$$$

  Mrv2115 07222212352D          

 26 29  0  0  0  0            999 V2000
    2.1434   -3.7125    0.0000 C   0  0  0  0  0  0  0  0  0  0  0  0
    2.1434   -2.8875    0.0000 O   0  0  0  0  0  0  0  0  0  0  0  0
    1.4289   -2.4750    0.0000 C   0  0  0  0  0  0  0  0  0  0  0  0
    0.7145   -2.8875    0.0000 O   0  0  0  0  0  0  0  0  0  0  0  0
    1.4289   -1.6500    0.0000 C   0  0  0  0  0  0  0  0  0  0  0  0
    0.7145   -1.2375    0.0000 C   0  0  0  0  0  0  0  0  0  0  0  0
    0.7145   -0.4125    0.0000 C   0  0  0  0  0  0  0  0  0  0  0  0
    0.0000    0.0000    0.0000 C   0  0  0  0  0  0  0  0  0  0  0  0
   -0.7145   -0.4125    0.0000 C   0  0  0  0  0  0  0  0  0  0  0  0
   -1.4289    0.0000    0.0000 C   0  0  0  0  0  0  0  0  0  0  0  0
   -1.4289    0.8250    0.0000 C   0  0  0  0  0  0  0  0  0  0  0  0
   -2.1434    1.2375    0.0000 C   0  0  0  0  0  0  0  0  0  0  0  0
   -2.8579    0.8250    0.0000 C   0  0  0  0  0  0  0  0  0  0  0  0
   -3.5724    1.2375    0.0000 C   0  0  0  0  0  0  0  0  0  0  0  0
   -3.5724    2.0625    0.0000 C   0  0  0  0  0  0  0  0  0  0  0  0
   -2.8579    2.4750    0.0000 C   0  0  0  0  0  0  0  0  0  0  0  0
   -2.1434    2.0625    0.0000 C   0  0  0  0  0  0  0  0  0  0  0  0
   -0.7145    1.2375    0.0000 C   0  0  0  0  0  0  0  0  0  0  0  0
    0.0000    0.8250    0.0000 C   0  0  0  0  0  0  0  0  0  0  0  0
    1.4289    0.0000    0.0000 N   0  0  0  0  0  0  0  0  0  0  0  0
    2.1434   -0.4125    0.0000 C   0  0  0  0  0  0  0  0  0  0  0  0
    2.8579    0.0000    0.0000 C   0  0  0  0  0  0  0  0  0  0  0  0
    3.5724   -0.4125    0.0000 C   0  0  0  0  0  0  0  0  0  0  0  0
    3.5724   -1.2375    0.0000 C   0  0  0  0  0  0  0  0  0  0  0  0
    2.8579   -1.6500    0.0000 C   0  0  0  0  0  0  0  0  0  0  0  0
    2.1434   -1.2375    0.0000 C   0  0  0  0  0  0  0  0  0  0  0  0
  1  2  1  0  0  0  0
  2  3  1  0  0  0  0
  3  4  2  0  0  0  0
  3  5  1  0  0  0  0
  5  6  4  0  0  0  0
  6  7  4  0  0  0  0
  7  8  1  0  0  0  0
  8  9  4  0  0  0  0
  9 10  4  0  0  0  0
 10 11  4  0  0  0  0
 11 12  1  0  0  0  0
 12 13  1  0  0  0  0
 13 14  1  0  0  0  0
 14 15  1  0  0  0  0
 15 16  1  0  0  0  0
 16 17  1  0  0  0  0
 12 17  1  0  0  0  0
 11 18  4  0  0  0  0
 18 19  4  0  0  0  0
  8 19  4  0  0  0  0
  7 20  4  0  0  0  0
 20 21  4  0  0  0  0
 21 22  4  0  0  0  0
 22 23  4  0  0  0  0
 23 24  4  0  0  0  0
 24 25  4  0  0  0  0
 25 26  4  0  0  0  0
  5 26  4  0  0  0  0
 21 26  4  0  0  0  0
M  END
> <IC50(uM)>
200.0

> <Outcome>
0.0

> <BindingDB ID>
51126174

> <BindingDB MonomerID>
50461861

> <BindingDB Ligand Name>
CHEMBL4228730

> <Curation/DataSource>
ChEMBL

> <Article DOI>
10.1021/acs.jmedchem.7b01862

> <PMID>
29727569

> <Patent Number>
?

> <Authors>
Madak, JT; Cuthbertson, CR; Miyata, Y; Tamura, S; Petrunak, EM; Stuckey, JA; Han, Y; He, M; Sun, D; Showalter, HD; Neamati, N

> <Link to Ligand in BindingDB>
http://www.bindingdb.org/bind/chemsearch/marvin/MolStructure.jsp?monomerid=50461861

> <Link to Ligand-Target Pair in BindingDB>
http://www.bindingdb.org/jsp/dbsearch/PrimarySearch_ki.jsp?energyterm=kJ/mole&tag=r21&monomerid=50461861&enzyme=Dihydroorotate+dehydrogenase&column=ki&startPg=0&Increment=50&submit=Search

> <PubChem CID>
145969133

> <PubChem SID>
433929126

$$$$

  Mrv2115 07222212352D          

 26 28  0  0  0  0            999 V2000
    0.7145   -3.7125    0.0000 O   0  0  0  0  0  0  0  0  0  0  0  0
    1.4289   -4.1250    0.0000 C   0  0  0  0  0  0  0  0  0  0  0  0
    2.1434   -3.7125    0.0000 O   0  0  0  0  0  0  0  0  0  0  0  0
    1.4289   -4.9500    0.0000 C   0  0  0  0  0  0  0  0  0  0  0  0
    2.0964   -5.4349    0.0000 C   0  0  0  0  0  0  0  0  0  0  0  0
    2.8810   -5.1800    0.0000 C   0  0  0  0  0  0  0  0  0  0  0  0
    3.4941   -5.7320    0.0000 O   0  0  0  0  0  0  0  0  0  0  0  0
    3.0525   -4.3730    0.0000 N   0  0  0  0  0  0  0  0  0  0  0  0
    3.8372   -4.1181    0.0000 C   0  0  0  0  0  0  0  0  0  0  0  0
    4.0087   -3.3111    0.0000 C   0  0  0  0  0  0  0  0  0  0  0  0
    3.3956   -2.7591    0.0000 F   0  0  0  0  0  0  0  0  0  0  0  0
    4.7933   -3.0562    0.0000 C   0  0  0  0  0  0  0  0  0  0  0  0
    5.4064   -3.6082    0.0000 C   0  0  0  0  0  0  0  0  0  0  0  0
    6.1910   -3.3533    0.0000 C   0  0  0  0  0  0  0  0  0  0  0  0
    6.3625   -2.5463    0.0000 C   0  0  0  0  0  0  0  0  0  0  0  0
    7.1472   -2.2913    0.0000 C   0  0  0  0  0  0  0  0  0  0  0  0
    7.7603   -2.8434    0.0000 C   0  0  0  0  0  0  0  0  0  0  0  0
    7.5887   -3.6503    0.0000 C   0  0  0  0  0  0  0  0  0  0  0  0
    6.8041   -3.9053    0.0000 C   0  0  0  0  0  0  0  0  0  0  0  0
    6.6326   -4.7123    0.0000 F   0  0  0  0  0  0  0  0  0  0  0  0
    5.2349   -4.4152    0.0000 C   0  0  0  0  0  0  0  0  0  0  0  0
    4.4502   -4.6701    0.0000 C   0  0  0  0  0  0  0  0  0  0  0  0
    4.2787   -5.4771    0.0000 F   0  0  0  0  0  0  0  0  0  0  0  0
    1.8414   -6.2195    0.0000 C   0  0  0  0  0  0  0  0  0  0  0  0
    1.0164   -6.2195    0.0000 C   0  0  0  0  0  0  0  0  0  0  0  0
    0.7615   -5.4349    0.0000 C   0  0  0  0  0  0  0  0  0  0  0  0
  1  2  2  0  0  0  0
  2  3  1  0  0  0  0
  2  4  1  0  0  0  0
  4  5  2  0  0  0  0
  5  6  1  0  0  0  0
  6  7  2  0  0  0  0
  6  8  1  0  0  0  0
  8  9  1  0  0  0  0
  9 10  4  0  0  0  0
 10 11  1  0  0  0  0
 10 12  4  0  0  0  0
 12 13  4  0  0  0  0
 13 14  1  0  0  0  0
 14 15  4  0  0  0  0
 15 16  4  0  0  0  0
 16 17  4  0  0  0  0
 17 18  4  0  0  0  0
 18 19  4  0  0  0  0
 14 19  4  0  0  0  0
 19 20  1  0  0  0  0
 13 21  4  0  0  0  0
 21 22  4  0  0  0  0
  9 22  4  0  0  0  0
 22 23  1  0  0  0  0
  5 24  1  0  0  0  0
 24 25  1  0  0  0  0
 25 26  1  0  0  0  0
  4 26  1  0  0  0  0
M  END
> <IC50(uM)>
0.045

> <Outcome>
1.0

> <BindingDB ID>
50251722

> <BindingDB MonomerID>
50137306

> <BindingDB Ligand Name>
2-(3,5,2'-Trifluoro-biphenyl-4-ylcarbamoyl)-cyclopent-1-enecarboxylic acid::CHEMBL154513

> <Curation/DataSource>
ChEMBL

> <Article DOI>
10.1016/j.bmcl.2003.10.021

> <PMID>
14684297

> <Patent Number>
?

> <Authors>
Leban, J; Saeb, W; Garcia, G; Baumgartner, R; Kramer, B

> <Link to Ligand in BindingDB>
http://www.bindingdb.org/bind/chemsearch/marvin/MolStructure.jsp?monomerid=50137306

> <Link to Ligand-Target Pair in BindingDB>
http://www.bindingdb.org/jsp/dbsearch/PrimarySearch_ki.jsp?energyterm=kJ/mole&tag=r21&monomerid=50137306&enzyme=Dihydroorotate+dehydrogenase&column=ki&startPg=0&Increment=50&submit=Search

> <PubChem CID>
21084723

> <PubChem SID>
104027472

$$$$

  Mrv2115 07222212352D          

 35 38  0  0  0  0            999 V2000
   -3.1034    2.1599    0.0000 C   0  0  0  0  0  0  0  0  0  0  0  0
   -2.6909    1.4455    0.0000 C   0  0  0  0  0  0  0  0  0  0  0  0
   -3.1034    0.7310    0.0000 O   0  0  0  0  0  0  0  0  0  0  0  0
   -2.6909    0.0165    0.0000 C   0  0  0  0  0  0  0  0  0  0  0  0
   -1.8659    0.0165    0.0000 C   0  0  0  0  0  0  0  0  0  0  0  0
   -1.4534   -0.6979    0.0000 C   0  0  0  0  0  0  0  0  0  0  0  0
   -0.6284   -0.6979    0.0000 N   0  0  0  0  0  0  0  0  0  0  0  0
   -0.1435   -1.3654    0.0000 N   0  0  0  0  0  0  0  0  0  0  0  0
    0.6411   -1.1104    0.0000 C   0  0  0  0  0  0  0  0  0  0  0  0
    0.6411   -0.2854    0.0000 N   0  0  0  0  0  0  0  0  0  0  0  0
   -0.1435   -0.0305    0.0000 C   0  0  0  0  0  0  0  0  0  0  0  0
   -0.3984    0.7541    0.0000 O   0  0  0  0  0  0  0  0  0  0  0  0
    1.3556    0.1271    0.0000 C   0  0  0  0  0  0  0  0  0  0  0  0
    2.0701   -0.2854    0.0000 C   0  0  0  0  0  0  0  0  0  0  0  0
    2.0701   -1.1104    0.0000 O   0  0  0  0  0  0  0  0  0  0  0  0
    1.3556   -1.5229    0.0000 C   0  0  0  0  0  0  0  0  0  0  0  0
   -1.8659   -1.4124    0.0000 C   0  0  0  0  0  0  0  0  0  0  0  0
   -1.4534   -2.1269    0.0000 F   0  0  0  0  0  0  0  0  0  0  0  0
   -2.6909   -1.4124    0.0000 C   0  0  0  0  0  0  0  0  0  0  0  0
   -3.1034   -0.6979    0.0000 C   0  0  0  0  0  0  0  0  0  0  0  0
   -3.9284   -0.6979    0.0000 C   0  0  0  0  0  0  0  0  0  0  0  0
   -4.3409    0.0165    0.0000 O   0  0  0  0  0  0  0  0  0  0  0  0
   -4.3409   -1.4124    0.0000 N   0  0  0  0  0  0  0  0  0  0  0  0
   -5.1659   -1.4124    0.0000 C   0  0  0  0  0  0  0  0  0  0  0  0
   -5.5784   -2.1269    0.0000 C   0  0  0  0  0  0  0  0  0  0  0  0
   -5.1659   -2.8414    0.0000 F   0  0  0  0  0  0  0  0  0  0  0  0
   -6.4034   -2.1269    0.0000 C   0  0  0  0  0  0  0  0  0  0  0  0
   -6.8159   -1.4124    0.0000 C   0  0  0  0  0  0  0  0  0  0  0  0
   -6.4034   -0.6979    0.0000 C   0  0  0  0  0  0  0  0  0  0  0  0
   -5.5784   -0.6979    0.0000 C   0  0  0  0  0  0  0  0  0  0  0  0
   -5.1659    0.0165    0.0000 F   0  0  0  0  0  0  0  0  0  0  0  0
   -1.8659    1.4455    0.0000 C   0  0  0  0  0  0  0  0  0  0  0  0
   -1.8659    0.6205    0.0000 F   0  0  0  0  0  0  0  0  0  0  0  0
   -1.8659    2.2705    0.0000 F   0  0  0  0  0  0  0  0  0  0  0  0
   -1.0409    1.4455    0.0000 F   0  0  0  0  0  0  0  0  0  0  0  0
  1  2  1  0  0  0  0
  2  3  1  0  0  0  0
  3  4  1  0  0  0  0
  4  5  4  0  0  0  0
  5  6  4  0  0  0  0
  6  7  1  0  0  0  0
  7  8  4  0  0  0  0
  8  9  4  0  0  0  0
  9 10  4  0  0  0  0
 10 11  4  0  0  0  0
  7 11  4  0  0  0  0
 11 12  2  0  0  0  0
 10 13  1  0  0  0  0
 13 14  1  0  0  0  0
 14 15  1  0  0  0  0
 15 16  1  0  0  0  0
  9 16  1  0  0  0  0
  6 17  4  0  0  0  0
 17 18  1  0  0  0  0
 17 19  4  0  0  0  0
 19 20  4  0  0  0  0
  4 20  4  0  0  0  0
 20 21  1  0  0  0  0
 21 22  2  0  0  0  0
 21 23  1  0  0  0  0
 23 24  1  0  0  0  0
 24 25  4  0  0  0  0
 25 26  1  0  0  0  0
 25 27  4  0  0  0  0
 27 28  4  0  0  0  0
 28 29  4  0  0  0  0
 29 30  4  0  0  0  0
 24 30  4  0  0  0  0
 30 31  1  0  0  0  0
  2 32  1  0  0  0  0
 32 33  1  0  0  0  0
 32 34  1  0  0  0  0
 32 35  1  0  0  0  0
M  END
> <IC50(uM)>
0.07

> <Outcome>
1.0

> <BindingDB ID>
1020576

> <BindingDB MonomerID>
490515

> <BindingDB Ligand Name>
N-(2,6-difluorophenyl)-5-fluoro-4-(3-oxo-5,6-dihydro-3H-[1,2,4]triazolo[3,4-c][1,4]oxazin-2(8H)-yl)-2-{[(2S)-1,1,1-trifluoropropan-2-yl]oxy}benzamide::US10968216, Example 183

> <Curation/DataSource>
US Patent

> <Article DOI>
?

> <PMID>
?

> <Patent Number>
US10968216

> <Authors>
Gradl, SN; Nguyen, D; Eis, K; Gunther, J; Stellfeld, T; Janzer, A; Christian, S; Mueller, T; Sheikh, SE; Zhou, HJ; Zhao, C; Sykes, DB; Ferrara, SJ; Liu, K; Herbert, SA; Merz, C; Niehues, M; Nising, CF; Schafer, M; Zimmermann, K; Knablein, J; Thede, K; Faupel, T

> <Link to Ligand in BindingDB>
http://www.bindingdb.org/bind/chemsearch/marvin/MolStructure.jsp?monomerid=490515

> <Link to Ligand-Target Pair in BindingDB>
http://www.bindingdb.org/jsp/dbsearch/PrimarySearch_ki.jsp?energyterm=kJ/mole&tag=r21&monomerid=490515&enzyme=Dihydroorotate+dehydrogenase&column=ki&startPg=0&Increment=50&submit=Search

> <PubChem CID>
134474141

> <PubChem SID>
447117242

$$$$

  Mrv2115 07222212352D          

 33 35  0  0  0  0            999 V2000
    2.1434   -3.7125    0.0000 C   0  0  0  0  0  0  0  0  0  0  0  0
    2.8579   -4.1250    0.0000 C   0  0  0  0  0  0  0  0  0  0  0  0
    3.5724   -3.7125    0.0000 C   0  0  0  0  0  0  0  0  0  0  0  0
    4.2868   -4.1250    0.0000 C   0  0  0  0  0  0  0  0  0  0  0  0
    4.2868   -4.9500    0.0000 C   0  0  0  0  0  0  0  0  0  0  0  0
    5.0013   -3.7125    0.0000 O   0  0  0  0  0  0  0  0  0  0  0  0
    5.0013   -2.8875    0.0000 C   0  0  0  0  0  0  0  0  0  0  0  0
    4.2868   -2.4750    0.0000 C   0  0  0  0  0  0  0  0  0  0  0  0
    4.2868   -1.6500    0.0000 C   0  0  0  0  0  0  0  0  0  0  0  0
    3.5724   -1.2375    0.0000 N   0  0  0  0  0  0  0  0  0  0  0  0
    2.8187   -1.5731    0.0000 N   0  0  0  0  0  0  0  0  0  0  0  0
    2.2666   -0.9600    0.0000 C   0  0  0  0  0  0  0  0  0  0  0  0
    1.4462   -1.0462    0.0000 C   0  0  0  0  0  0  0  0  0  0  0  0
    1.1106   -1.7999    0.0000 C   0  0  0  0  0  0  0  0  0  0  0  0
    2.6791   -0.2455    0.0000 N   0  0  0  0  0  0  0  0  0  0  0  0
    2.3436    0.5082    0.0000 C   0  0  0  0  0  0  0  0  0  0  0  0
    3.4861   -0.4170    0.0000 C   0  0  0  0  0  0  0  0  0  0  0  0
    4.0992    0.1350    0.0000 O   0  0  0  0  0  0  0  0  0  0  0  0
    5.0013   -1.2375    0.0000 C   0  0  0  0  0  0  0  0  0  0  0  0
    5.0013   -0.4125    0.0000 F   0  0  0  0  0  0  0  0  0  0  0  0
    5.7158   -1.6500    0.0000 C   0  0  0  0  0  0  0  0  0  0  0  0
    5.7158   -2.4750    0.0000 C   0  0  0  0  0  0  0  0  0  0  0  0
    6.4302   -2.8875    0.0000 C   0  0  0  0  0  0  0  0  0  0  0  0
    6.4302   -3.7125    0.0000 O   0  0  0  0  0  0  0  0  0  0  0  0
    7.1447   -2.4750    0.0000 N   0  0  0  0  0  0  0  0  0  0  0  0
    7.8592   -2.8875    0.0000 C   0  0  0  0  0  0  0  0  0  0  0  0
    8.5737   -2.4750    0.0000 C   0  0  0  0  0  0  0  0  0  0  0  0
    9.2881   -2.8875    0.0000 C   0  0  0  0  0  0  0  0  0  0  0  0
    9.2881   -3.7125    0.0000 C   0  0  0  0  0  0  0  0  0  0  0  0
   10.0026   -4.1250    0.0000 O   0  0  0  0  0  0  0  0  0  0  0  0
   10.7171   -3.7125    0.0000 C   0  0  0  0  0  0  0  0  0  0  0  0
    8.5737   -4.1250    0.0000 C   0  0  0  0  0  0  0  0  0  0  0  0
    7.8592   -3.7125    0.0000 C   0  0  0  0  0  0  0  0  0  0  0  0
  1  2  1  0  0  0  0
  2  3  1  0  0  0  0
  3  4  1  0  0  0  0
  4  5  1  0  0  0  0
  4  6  1  0  0  0  0
  6  7  1  0  0  0  0
  7  8  4  0  0  0  0
  8  9  4  0  0  0  0
  9 10  1  0  0  0  0
 10 11  4  0  0  0  0
 11 12  4  0  0  0  0
 12 13  1  0  0  0  0
 13 14  1  0  0  0  0
 12 15  4  0  0  0  0
 15 16  1  0  0  0  0
 15 17  4  0  0  0  0
 10 17  4  0  0  0  0
 17 18  2  0  0  0  0
  9 19  4  0  0  0  0
 19 20  1  0  0  0  0
 19 21  4  0  0  0  0
 21 22  4  0  0  0  0
  7 22  4  0  0  0  0
 22 23  1  0  0  0  0
 23 24  2  0  0  0  0
 23 25  1  0  0  0  0
 25 26  1  0  0  0  0
 26 27  4  0  0  0  0
 27 28  4  0  0  0  0
 28 29  4  0  0  0  0
 29 30  1  0  0  0  0
 30 31  1  0  0  0  0
 29 32  4  0  0  0  0
 32 33  4  0  0  0  0
 26 33  4  0  0  0  0
M  END
> <IC50(uM)>
0.41785

> <Outcome>
1.0

> <BindingDB ID>
972472; 1098626; 1098625; 972471

> <BindingDB MonomerID>
470362

> <BindingDB Ligand Name>
4-(3-ethyl-4-methyl-5-oxo-4,5-dihydro-1H-1,2,4-triazol-1-yl)-5-fluoro-N-(4-methoxyphenyl)-2-[(2S)-pentan-2-yloxy]benzamide::US10815215, Example 21; 4-(3-ethyl-4-methyl-5-oxo-4,5-dihydro-1H-1,2,4-triazol-1-yl)-5-fluoro-N-(4-methoxyphenyl)-2-[(2S)-pentan-2-yloxy]benzamide::US10815215, Example 21::US11130745, Example 21

> <Curation/DataSource>
US Patent

> <Article DOI>
?

> <PMID>
?

> <Patent Number>
US10815215; US11130745

> <Authors>
Gradl, SN; Nguyen, D; Eis, K; Gunther, J; Stellfeld, T; Janzer, A; Christian, S; Muller, T; Sheikh, SE; Zhou, HJ; Zhao, C; Sykes, DB; Ferrara, SJ; Liu, K; Krober, M; Merz, C; Niehues, M; Schafer, M; Zimmermann, K; Nising, CF; Gradl, SN; Nguyen, D; Eis, K; Gunther, J; Stellfeld, T; Janzer, A; Christian, S; Muller, T; Sheikh, SE; Sykes, DB; Ferrara, SJ; Krober, M; Merz, C; Niehues, M; Schafer, M; Zimmermann, K; Nising, CF

> <Link to Ligand in BindingDB>
http://www.bindingdb.org/bind/chemsearch/marvin/MolStructure.jsp?monomerid=470362

> <Link to Ligand-Target Pair in BindingDB>
http://www.bindingdb.org/jsp/dbsearch/PrimarySearch_ki.jsp?energyterm=kJ/mole&tag=r21&monomerid=470362&enzyme=Dihydroorotate+dehydrogenase&column=ki&startPg=0&Increment=50&submit=Search

> <PubChem CID>
134469745

> <PubChem SID>
441609539

$$$$

  Mrv2115 07222212352D          

 25 28  0  0  0  0            999 V2000
    2.1434   -2.8875    0.0000 O   0  0  0  0  0  0  0  0  0  0  0  0
    1.4289   -2.4750    0.0000 C   0  0  0  0  0  0  0  0  0  0  0  0
    0.7145   -2.8875    0.0000 O   0  0  0  0  0  0  0  0  0  0  0  0
    1.4289   -1.6500    0.0000 C   0  0  0  0  0  0  0  0  0  0  0  0
    0.7145   -1.2375    0.0000 C   0  0  0  0  0  0  0  0  0  0  0  0
    0.7145   -0.4125    0.0000 C   0  0  0  0  0  0  0  0  0  0  0  0
    0.0000    0.0000    0.0000 C   0  0  0  0  0  0  0  0  0  0  0  0
   -0.7145   -0.4125    0.0000 C   0  0  0  0  0  0  0  0  0  0  0  0
   -1.4289    0.0000    0.0000 C   0  0  0  0  0  0  0  0  0  0  0  0
   -1.4289    0.8250    0.0000 C   0  0  0  0  0  0  0  0  0  0  0  0
   -2.1434    1.2375    0.0000 C   0  0  0  0  0  0  0  0  0  0  0  0
   -2.8579    0.8250    0.0000 C   0  0  0  0  0  0  0  0  0  0  0  0
   -3.5724    1.2375    0.0000 C   0  0  0  0  0  0  0  0  0  0  0  0
   -3.5724    2.0625    0.0000 C   0  0  0  0  0  0  0  0  0  0  0  0
   -2.8579    2.4750    0.0000 C   0  0  0  0  0  0  0  0  0  0  0  0
   -2.1434    2.0625    0.0000 C   0  0  0  0  0  0  0  0  0  0  0  0
   -0.7145    1.2375    0.0000 C   0  0  0  0  0  0  0  0  0  0  0  0
    0.0000    0.8250    0.0000 C   0  0  0  0  0  0  0  0  0  0  0  0
    1.4289    0.0000    0.0000 N   0  0  0  0  0  0  0  0  0  0  0  0
    2.1434   -0.4125    0.0000 C   0  0  0  0  0  0  0  0  0  0  0  0
    2.8579    0.0000    0.0000 C   0  0  0  0  0  0  0  0  0  0  0  0
    3.5724   -0.4125    0.0000 C   0  0  0  0  0  0  0  0  0  0  0  0
    3.5724   -1.2375    0.0000 C   0  0  0  0  0  0  0  0  0  0  0  0
    2.8579   -1.6500    0.0000 C   0  0  0  0  0  0  0  0  0  0  0  0
    2.1434   -1.2375    0.0000 C   0  0  0  0  0  0  0  0  0  0  0  0
  1  2  2  0  0  0  0
  2  3  1  0  0  0  0
  2  4  1  0  0  0  0
  4  5  4  0  0  0  0
  5  6  4  0  0  0  0
  6  7  1  0  0  0  0
  7  8  4  0  0  0  0
  8  9  4  0  0  0  0
  9 10  4  0  0  0  0
 10 11  1  0  0  0  0
 11 12  4  0  0  0  0
 12 13  4  0  0  0  0
 13 14  4  0  0  0  0
 14 15  4  0  0  0  0
 15 16  4  0  0  0  0
 11 16  4  0  0  0  0
 10 17  4  0  0  0  0
 17 18  4  0  0  0  0
  7 18  4  0  0  0  0
  6 19  4  0  0  0  0
 19 20  4  0  0  0  0
 20 21  4  0  0  0  0
 21 22  4  0  0  0  0
 22 23  4  0  0  0  0
 23 24  4  0  0  0  0
 24 25  4  0  0  0  0
  4 25  4  0  0  0  0
 20 25  4  0  0  0  0
M  END
> <IC50(uM)>
0.051

> <Outcome>
1.0

> <BindingDB ID>
51126177

> <BindingDB MonomerID>
50461864

> <BindingDB Ligand Name>
CHEMBL3600460

> <Curation/DataSource>
ChEMBL

> <Article DOI>
10.1021/acs.jmedchem.7b01862

> <PMID>
29727569

> <Patent Number>
?

> <Authors>
Madak, JT; Cuthbertson, CR; Miyata, Y; Tamura, S; Petrunak, EM; Stuckey, JA; Han, Y; He, M; Sun, D; Showalter, HD; Neamati, N

> <Link to Ligand in BindingDB>
http://www.bindingdb.org/bind/chemsearch/marvin/MolStructure.jsp?monomerid=50461864

> <Link to Ligand-Target Pair in BindingDB>
http://www.bindingdb.org/jsp/dbsearch/PrimarySearch_ki.jsp?energyterm=kJ/mole&tag=r21&monomerid=50461864&enzyme=Dihydroorotate+dehydrogenase&column=ki&startPg=0&Increment=50&submit=Search

> <PubChem CID>
2063288

> <PubChem SID>
433929129

$$$$

  Mrv2115 07222212352D          

 24 26  0  0  0  0            999 V2000
   -3.5724    1.2375    0.0000 C   0  0  0  0  0  0  0  0  0  0  0  0
   -2.8579    0.8250    0.0000 O   0  0  0  0  0  0  0  0  0  0  0  0
   -2.1434    1.2375    0.0000 C   0  0  0  0  0  0  0  0  0  0  0  0
   -2.1434    2.0625    0.0000 O   0  0  0  0  0  0  0  0  0  0  0  0
   -1.4289    0.8250    0.0000 C   0  0  0  0  0  0  0  0  0  0  0  0
   -0.7145    1.2375    0.0000 C   0  0  0  0  0  0  0  0  0  0  0  0
    0.0000    0.8250    0.0000 C   0  0  0  0  0  0  0  0  0  0  0  0
    0.0000    0.0000    0.0000 C   0  0  0  0  0  0  0  0  0  0  0  0
    0.7145   -0.4125    0.0000 N   0  0  0  0  0  0  0  0  0  0  0  0
    0.7145   -1.2375    0.0000 C   0  0  0  0  0  0  0  0  0  0  0  0
    1.3819   -1.7224    0.0000 N   0  0  0  0  0  0  0  0  0  0  0  0
    1.1270   -2.5070    0.0000 C   0  0  0  0  0  0  0  0  0  0  0  0
    1.6119   -3.1745    0.0000 C   0  0  0  0  0  0  0  0  0  0  0  0
    2.4324   -3.0882    0.0000 C   0  0  0  0  0  0  0  0  0  0  0  0
    2.9173   -3.7557    0.0000 C   0  0  0  0  0  0  0  0  0  0  0  0
    2.5817   -4.5094    0.0000 C   0  0  0  0  0  0  0  0  0  0  0  0
    3.0667   -5.1768    0.0000 Cl  0  0  0  0  0  0  0  0  0  0  0  0
    1.7613   -4.5956    0.0000 C   0  0  0  0  0  0  0  0  0  0  0  0
    1.2763   -3.9282    0.0000 C   0  0  0  0  0  0  0  0  0  0  0  0
    0.3020   -2.5070    0.0000 C   0  0  0  0  0  0  0  0  0  0  0  0
   -0.1830   -3.1745    0.0000 C   0  0  0  0  0  0  0  0  0  0  0  0
    0.0470   -1.7224    0.0000 S   0  0  0  0  0  0  0  0  0  0  0  0
   -0.7145   -0.4125    0.0000 C   0  0  0  0  0  0  0  0  0  0  0  0
   -1.4289    0.0000    0.0000 C   0  0  0  0  0  0  0  0  0  0  0  0
  1  2  1  0  0  0  0
  2  3  1  0  0  0  0
  3  4  2  0  0  0  0
  3  5  1  0  0  0  0
  5  6  4  0  0  0  0
  6  7  4  0  0  0  0
  7  8  4  0  0  0  0
  8  9  1  0  0  0  0
  9 10  1  0  0  0  0
 10 11  4  0  0  0  0
 11 12  4  0  0  0  0
 12 13  1  0  0  0  0
 13 14  4  0  0  0  0
 14 15  4  0  0  0  0
 15 16  4  0  0  0  0
 16 17  1  0  0  0  0
 16 18  4  0  0  0  0
 18 19  4  0  0  0  0
 13 19  4  0  0  0  0
 12 20  4  0  0  0  0
 20 21  1  0  0  0  0
 20 22  4  0  0  0  0
 10 22  4  0  0  0  0
  8 23  4  0  0  0  0
 23 24  4  0  0  0  0
  5 24  4  0  0  0  0
M  END
> <IC50(uM)>
1.27

> <Outcome>
0.0

> <BindingDB ID>
50971941

> <BindingDB MonomerID>
50398644

> <BindingDB Ligand Name>
CHEMBL2177115

> <Curation/DataSource>
ChEMBL

> <Article DOI>
10.1021/jm300630p

> <PMID>
22984987

> <Patent Number>
?

> <Authors>
Diao, Y; Lu, W; Jin, H; Zhu, J; Han, L; Xu, M; Gao, R; Shen, X; Zhao, Z; Liu, X; Xu, Y; Huang, J; Li, H

> <Link to Ligand in BindingDB>
http://www.bindingdb.org/bind/chemsearch/marvin/MolStructure.jsp?monomerid=50398644

> <Link to Ligand-Target Pair in BindingDB>
http://www.bindingdb.org/jsp/dbsearch/PrimarySearch_ki.jsp?energyterm=kJ/mole&tag=r21&monomerid=50398644&enzyme=Dihydroorotate+dehydrogenase&column=ki&startPg=0&Increment=50&submit=Search

> <PubChem CID>
1027581

> <PubChem SID>
163347668

$$$$

  Mrv2115 07222212352D          

 29 31  0  0  0  0            999 V2000
   -2.1434   -1.2375    0.0000 C   0  0  0  0  0  0  0  0  0  0  0  0
   -2.8579   -1.6500    0.0000 O   0  0  0  0  0  0  0  0  0  0  0  0
   -2.8579   -2.4750    0.0000 C   0  0  0  0  0  0  0  0  0  0  0  0
   -2.1434   -2.8875    0.0000 C   0  0  0  0  0  0  0  0  0  0  0  0
   -2.1434   -3.7125    0.0000 C   0  0  0  0  0  0  0  0  0  0  0  0
   -2.8579   -4.1250    0.0000 C   0  0  0  0  0  0  0  0  0  0  0  0
   -3.5724   -3.7125    0.0000 C   0  0  0  0  0  0  0  0  0  0  0  0
   -4.2868   -4.1250    0.0000 C   0  0  0  0  0  0  0  0  0  0  0  0
   -5.0013   -3.7125    0.0000 C   0  0  0  0  0  0  0  0  0  0  0  0
   -5.7158   -4.1250    0.0000 C   0  0  0  0  0  0  0  0  0  0  0  0
   -5.7158   -4.9500    0.0000 C   0  0  0  0  0  0  0  0  0  0  0  0
   -6.4302   -5.3625    0.0000 N   0  0  0  0  0  0  0  0  0  0  0  0
   -6.4302   -6.1875    0.0000 C   0  0  0  0  0  0  0  0  0  0  0  0
   -5.7158   -6.6000    0.0000 C   0  0  0  0  0  0  0  0  0  0  0  0
   -5.7158   -7.4250    0.0000 N   0  0  0  0  0  0  0  0  0  0  0  0
   -6.4302   -7.8375    0.0000 C   0  0  0  0  0  0  0  0  0  0  0  0
   -7.1447   -7.4250    0.0000 C   0  0  0  0  0  0  0  0  0  0  0  0
   -7.1447   -6.6000    0.0000 C   0  0  0  0  0  0  0  0  0  0  0  0
   -7.8592   -6.1875    0.0000 C   0  0  0  0  0  0  0  0  0  0  0  0
   -7.8592   -5.3625    0.0000 O   0  0  0  0  0  0  0  0  0  0  0  0
   -8.5737   -6.6000    0.0000 O   0  0  0  0  0  0  0  0  0  0  0  0
   -5.0013   -5.3625    0.0000 C   0  0  0  0  0  0  0  0  0  0  0  0
   -5.0013   -6.1875    0.0000 O   0  0  0  0  0  0  0  0  0  0  0  0
   -4.2868   -6.6000    0.0000 C   0  0  0  0  0  0  0  0  0  0  0  0
   -4.6993   -7.3145    0.0000 F   0  0  0  0  0  0  0  0  0  0  0  0
   -3.8743   -5.8855    0.0000 F   0  0  0  0  0  0  0  0  0  0  0  0
   -3.5724   -7.0125    0.0000 F   0  0  0  0  0  0  0  0  0  0  0  0
   -4.2868   -4.9500    0.0000 C   0  0  0  0  0  0  0  0  0  0  0  0
   -3.5724   -2.8875    0.0000 C   0  0  0  0  0  0  0  0  0  0  0  0
  1  2  1  0  0  0  0
  2  3  1  0  0  0  0
  3  4  4  0  0  0  0
  4  5  4  0  0  0  0
  5  6  4  0  0  0  0
  6  7  4  0  0  0  0
  7  8  1  0  0  0  0
  8  9  4  0  0  0  0
  9 10  4  0  0  0  0
 10 11  4  0  0  0  0
 11 12  1  0  0  0  0
 12 13  1  0  0  0  0
 13 14  4  0  0  0  0
 14 15  4  0  0  0  0
 15 16  4  0  0  0  0
 16 17  4  0  0  0  0
 17 18  4  0  0  0  0
 13 18  4  0  0  0  0
 18 19  1  0  0  0  0
 19 20  2  0  0  0  0
 19 21  1  0  0  0  0
 11 22  4  0  0  0  0
 22 23  1  0  0  0  0
 23 24  1  0  0  0  0
 24 25  1  0  0  0  0
 24 26  1  0  0  0  0
 24 27  1  0  0  0  0
 22 28  4  0  0  0  0
  8 28  4  0  0  0  0
  7 29  4  0  0  0  0
  3 29  4  0  0  0  0
M  END
> <IC50(uM)>
0.014

> <Outcome>
1.0

> <BindingDB ID>
51186842

> <BindingDB MonomerID>
50487967

> <BindingDB Ligand Name>
CHEMBL2263634

> <Curation/DataSource>
ChEMBL

> <Article DOI>
10.1007/s00044-011-9837-4

> <PMID>
?

> <Patent Number>
?

> <Authors>
n/a

> <Link to Ligand in BindingDB>
http://www.bindingdb.org/bind/chemsearch/marvin/MolStructure.jsp?monomerid=50487967

> <Link to Ligand-Target Pair in BindingDB>
http://www.bindingdb.org/jsp/dbsearch/PrimarySearch_ki.jsp?energyterm=kJ/mole&tag=r21&monomerid=50487967&enzyme=Dihydroorotate+dehydrogenase&column=ki&startPg=0&Increment=50&submit=Search

> <PubChem CID>
24987187

> <PubChem SID>
433955232

$$$$

  Mrv2115 07222212352D          

 34 37  0  0  0  0            999 V2000
   -5.1659    1.4455    0.0000 C   0  0  0  0  0  0  0  0  0  0  0  0
   -4.3409    1.4455    0.0000 C   0  0  0  0  0  0  0  0  0  0  0  0
   -3.9284    2.1599    0.0000 C   0  0  0  0  0  0  0  0  0  0  0  0
   -3.1034    2.1599    0.0000 C   0  0  0  0  0  0  0  0  0  0  0  0
   -2.6909    1.4455    0.0000 C   0  0  0  0  0  0  0  0  0  0  0  0
   -3.1034    0.7310    0.0000 C   0  0  0  0  0  0  0  0  0  0  0  0
   -3.9284    0.7310    0.0000 C   0  0  0  0  0  0  0  0  0  0  0  0
   -4.3409    0.0165    0.0000 N   0  0  0  0  0  0  0  0  0  0  0  0
   -3.9284   -0.6979    0.0000 C   0  0  0  0  0  0  0  0  0  0  0  0
   -4.3409   -1.4124    0.0000 O   0  0  0  0  0  0  0  0  0  0  0  0
   -3.1034   -0.6979    0.0000 C   0  0  0  0  0  0  0  0  0  0  0  0
   -2.6909    0.0165    0.0000 C   0  0  0  0  0  0  0  0  0  0  0  0
   -1.8659    0.0165    0.0000 C   0  0  0  0  0  0  0  0  0  0  0  0
   -1.4534    0.7310    0.0000 F   0  0  0  0  0  0  0  0  0  0  0  0
   -1.4534   -0.6979    0.0000 C   0  0  0  0  0  0  0  0  0  0  0  0
   -0.6284   -0.6979    0.0000 N   0  0  0  0  0  0  0  0  0  0  0  0
   -0.1435   -1.3654    0.0000 N   0  0  0  0  0  0  0  0  0  0  0  0
    0.6411   -1.1104    0.0000 C   0  0  0  0  0  0  0  0  0  0  0  0
    0.6411   -0.2854    0.0000 N   0  0  0  0  0  0  0  0  0  0  0  0
   -0.1435   -0.0305    0.0000 C   0  0  0  0  0  0  0  0  0  0  0  0
   -0.3984    0.7541    0.0000 O   0  0  0  0  0  0  0  0  0  0  0  0
    1.3556    0.1271    0.0000 C   0  0  0  0  0  0  0  0  0  0  0  0
    2.0701   -0.2854    0.0000 C   0  0  0  0  0  0  0  0  0  0  0  0
    2.0701   -1.1104    0.0000 O   0  0  0  0  0  0  0  0  0  0  0  0
    1.3556   -1.5229    0.0000 C   0  0  0  0  0  0  0  0  0  0  0  0
   -1.8659   -1.4124    0.0000 C   0  0  0  0  0  0  0  0  0  0  0  0
   -2.6909   -1.4124    0.0000 C   0  0  0  0  0  0  0  0  0  0  0  0
   -3.1034   -2.1269    0.0000 O   0  0  0  0  0  0  0  0  0  0  0  0
   -2.6909   -2.8414    0.0000 C   0  0  0  0  0  0  0  0  0  0  0  0
   -1.8659   -2.8414    0.0000 C   0  0  0  0  0  0  0  0  0  0  0  0
   -3.1034   -3.5558    0.0000 C   0  0  0  0  0  0  0  0  0  0  0  0
   -3.8179   -3.1433    0.0000 F   0  0  0  0  0  0  0  0  0  0  0  0
   -2.3890   -3.9683    0.0000 F   0  0  0  0  0  0  0  0  0  0  0  0
   -3.5159   -4.2703    0.0000 F   0  0  0  0  0  0  0  0  0  0  0  0
  1  2  1  0  0  0  0
  2  3  4  0  0  0  0
  3  4  4  0  0  0  0
  4  5  4  0  0  0  0
  5  6  4  0  0  0  0
  6  7  4  0  0  0  0
  2  7  4  0  0  0  0
  7  8  1  0  0  0  0
  8  9  1  0  0  0  0
  9 10  2  0  0  0  0
  9 11  1  0  0  0  0
 11 12  4  0  0  0  0
 12 13  4  0  0  0  0
 13 14  1  0  0  0  0
 13 15  4  0  0  0  0
 15 16  1  0  0  0  0
 16 17  4  0  0  0  0
 17 18  4  0  0  0  0
 18 19  4  0  0  0  0
 19 20  4  0  0  0  0
 16 20  4  0  0  0  0
 20 21  2  0  0  0  0
 19 22  1  0  0  0  0
 22 23  1  0  0  0  0
 23 24  1  0  0  0  0
 24 25  1  0  0  0  0
 18 25  1  0  0  0  0
 15 26  4  0  0  0  0
 26 27  4  0  0  0  0
 11 27  4  0  0  0  0
 27 28  1  0  0  0  0
 28 29  1  0  0  0  0
 29 30  1  0  0  0  0
 29 31  1  0  0  0  0
 31 32  1  0  0  0  0
 31 33  1  0  0  0  0
 31 34  1  0  0  0  0
M  END
> <IC50(uM)>
0.045

> <Outcome>
1.0

> <BindingDB ID>
1020578

> <BindingDB MonomerID>
490517

> <BindingDB Ligand Name>
5-fluoro-N-(2-methylphenyl)-4-(3-oxo-5,6-dihydro-3H-[1,2,4]triazolo[3,4-c][1,4]oxazin-2(8H)-yl)-2-{[(2S)-1,1,1-trifluoropropan-2-yl]oxy}benzamide::US10968216, Example 185

> <Curation/DataSource>
US Patent

> <Article DOI>
?

> <PMID>
?

> <Patent Number>
US10968216

> <Authors>
Gradl, SN; Nguyen, D; Eis, K; Gunther, J; Stellfeld, T; Janzer, A; Christian, S; Mueller, T; Sheikh, SE; Zhou, HJ; Zhao, C; Sykes, DB; Ferrara, SJ; Liu, K; Herbert, SA; Merz, C; Niehues, M; Nising, CF; Schafer, M; Zimmermann, K; Knablein, J; Thede, K; Faupel, T

> <Link to Ligand in BindingDB>
http://www.bindingdb.org/bind/chemsearch/marvin/MolStructure.jsp?monomerid=490517

> <Link to Ligand-Target Pair in BindingDB>
http://www.bindingdb.org/jsp/dbsearch/PrimarySearch_ki.jsp?energyterm=kJ/mole&tag=r21&monomerid=490517&enzyme=Dihydroorotate+dehydrogenase&column=ki&startPg=0&Increment=50&submit=Search

> <PubChem CID>
134474165

> <PubChem SID>
447117243

$$$$

  Mrv2115 07222212352D          

 31 35  0  0  0  0            999 V2000
   -0.1712   -0.6979    0.0000 C   0  0  0  0  0  0  0  0  0  0  0  0
    0.6538   -0.6979    0.0000 C   0  0  0  0  0  0  0  0  0  0  0  0
    1.1387   -0.0305    0.0000 N   0  0  0  0  0  0  0  0  0  0  0  0
    1.9233   -0.2854    0.0000 C   0  0  0  0  0  0  0  0  0  0  0  0
    2.6378    0.1271    0.0000 C   0  0  0  0  0  0  0  0  0  0  0  0
    2.6378    0.9521    0.0000 C   0  0  0  0  0  0  0  0  0  0  0  0
    3.3523    1.3646    0.0000 O   0  0  0  0  0  0  0  0  0  0  0  0
    1.9233    1.3646    0.0000 O   0  0  0  0  0  0  0  0  0  0  0  0
    3.3523   -0.2854    0.0000 C   0  0  0  0  0  0  0  0  0  0  0  0
    3.3523   -1.1104    0.0000 C   0  0  0  0  0  0  0  0  0  0  0  0
    4.0668   -1.5229    0.0000 C   0  0  0  0  0  0  0  0  0  0  0  0
    4.7812   -1.1104    0.0000 C   0  0  0  0  0  0  0  0  0  0  0  0
    5.4957   -1.5229    0.0000 C   0  0  0  0  0  0  0  0  0  0  0  0
    5.4957   -2.3479    0.0000 C   0  0  0  0  0  0  0  0  0  0  0  0
    6.2102   -2.7604    0.0000 C   0  0  0  0  0  0  0  0  0  0  0  0
    6.9246   -2.3479    0.0000 C   0  0  0  0  0  0  0  0  0  0  0  0
    7.6391   -2.7604    0.0000 C   0  0  0  0  0  0  0  0  0  0  0  0
    7.6391   -3.5854    0.0000 C   0  0  0  0  0  0  0  0  0  0  0  0
    6.9246   -3.9979    0.0000 C   0  0  0  0  0  0  0  0  0  0  0  0
    6.2102   -3.5854    0.0000 C   0  0  0  0  0  0  0  0  0  0  0  0
    5.4957   -3.9979    0.0000 C   0  0  0  0  0  0  0  0  0  0  0  0
    5.4957   -4.8229    0.0000 N   0  0  0  0  0  0  0  0  0  0  0  0
    6.1631   -5.3079    0.0000 C   0  0  0  0  0  0  0  0  0  0  0  0
    5.9082   -6.0925    0.0000 C   0  0  0  0  0  0  0  0  0  0  0  0
    5.0832   -6.0925    0.0000 C   0  0  0  0  0  0  0  0  0  0  0  0
    4.8283   -5.3079    0.0000 C   0  0  0  0  0  0  0  0  0  0  0  0
    4.7812   -2.7604    0.0000 C   0  0  0  0  0  0  0  0  0  0  0  0
    4.0668   -2.3479    0.0000 C   0  0  0  0  0  0  0  0  0  0  0  0
    2.6378   -1.5229    0.0000 C   0  0  0  0  0  0  0  0  0  0  0  0
    1.9233   -1.1104    0.0000 C   0  0  0  0  0  0  0  0  0  0  0  0
    1.1387   -1.3654    0.0000 N   0  0  0  0  0  0  0  0  0  0  0  0
  1  2  1  0  0  0  0
  2  3  4  0  0  0  0
  3  4  4  0  0  0  0
  4  5  4  0  0  0  0
  5  6  1  0  0  0  0
  6  7  2  0  0  0  0
  6  8  1  0  0  0  0
  5  9  4  0  0  0  0
  9 10  4  0  0  0  0
 10 11  1  0  0  0  0
 11 12  4  0  0  0  0
 12 13  4  0  0  0  0
 13 14  4  0  0  0  0
 14 15  1  0  0  0  0
 15 16  4  0  0  0  0
 16 17  4  0  0  0  0
 17 18  4  0  0  0  0
 18 19  4  0  0  0  0
 19 20  4  0  0  0  0
 15 20  4  0  0  0  0
 20 21  1  0  0  0  0
 21 22  1  0  0  0  0
 22 23  1  0  0  0  0
 23 24  1  0  0  0  0
 24 25  1  0  0  0  0
 25 26  1  0  0  0  0
 22 26  1  0  0  0  0
 14 27  4  0  0  0  0
 27 28  4  0  0  0  0
 11 28  4  0  0  0  0
 10 29  4  0  0  0  0
 29 30  4  0  0  0  0
  4 30  4  0  0  0  0
 30 31  4  0  0  0  0
  2 31  4  0  0  0  0
M  STY  1   1 DAT
M  SAL   1  1  31
M  SDT   1 MRV_IMPLICIT_H                                        
M  SDD   1     0.5304   -0.4125    DR    ALL  0       0  
M  SED   1 IMPL_H1
M  END
> <IC50(uM)>
0.0028000000000000004

> <Outcome>
1.0

> <BindingDB ID>
51390142; 1045598

> <BindingDB MonomerID>
501656

> <BindingDB Ligand Name>
US11028054, Example 46

> <Curation/DataSource>
ChEMBL; US Patent

> <Article DOI>
?

> <PMID>
33214811; ?

> <Patent Number>
?; US11028054

> <Authors>
Abdel-Magid, AF; Thunuguntla, SS; Hosahalli, S; Panigrahi, SK; Schwarz, M; Arit, M

> <Link to Ligand in BindingDB>
http://www.bindingdb.org/bind/chemsearch/marvin/MolStructure.jsp?monomerid=501656

> <Link to Ligand-Target Pair in BindingDB>
http://www.bindingdb.org/jsp/dbsearch/PrimarySearch_ki.jsp?energyterm=kJ/mole&tag=r21&monomerid=501656&enzyme=Dihydroorotate+dehydrogenase&column=ki&startPg=0&Increment=50&submit=Search

> <PubChem CID>
146525317; ?

> <PubChem SID>
459086988; ?

$$$$

  Mrv2115 07222212352D          

 25 28  0  0  0  0            999 V2000
    2.1434   -2.8875    0.0000 O   0  0  0  0  0  0  0  0  0  0  0  0
    1.4289   -2.4750    0.0000 C   0  0  0  0  0  0  0  0  0  0  0  0
    0.7145   -2.8875    0.0000 O   0  0  0  0  0  0  0  0  0  0  0  0
    1.4289   -1.6500    0.0000 C   0  0  0  0  0  0  0  0  0  0  0  0
    0.7145   -1.2375    0.0000 C   0  0  0  0  0  0  0  0  0  0  0  0
    0.7145   -0.4125    0.0000 C   0  0  0  0  0  0  0  0  0  0  0  0
    0.0000    0.0000    0.0000 C   0  0  0  0  0  0  0  0  0  0  0  0
   -0.7145   -0.4125    0.0000 C   0  0  0  0  0  0  0  0  0  0  0  0
   -1.4289    0.0000    0.0000 C   0  0  0  0  0  0  0  0  0  0  0  0
   -1.4289    0.8250    0.0000 C   0  0  0  0  0  0  0  0  0  0  0  0
   -2.1434    1.2375    0.0000 C   0  0  0  0  0  0  0  0  0  0  0  0
   -2.8579    0.8250    0.0000 C   0  0  0  0  0  0  0  0  0  0  0  0
   -3.5724    1.2375    0.0000 N   0  0  0  0  0  0  0  0  0  0  0  0
   -3.5724    2.0625    0.0000 C   0  0  0  0  0  0  0  0  0  0  0  0
   -2.8579    2.4750    0.0000 N   0  0  0  0  0  0  0  0  0  0  0  0
   -2.1434    2.0625    0.0000 C   0  0  0  0  0  0  0  0  0  0  0  0
   -0.7145    1.2375    0.0000 C   0  0  0  0  0  0  0  0  0  0  0  0
    0.0000    0.8250    0.0000 C   0  0  0  0  0  0  0  0  0  0  0  0
    1.4289    0.0000    0.0000 N   0  0  0  0  0  0  0  0  0  0  0  0
    2.1434   -0.4125    0.0000 C   0  0  0  0  0  0  0  0  0  0  0  0
    2.8579    0.0000    0.0000 C   0  0  0  0  0  0  0  0  0  0  0  0
    3.5724   -0.4125    0.0000 C   0  0  0  0  0  0  0  0  0  0  0  0
    3.5724   -1.2375    0.0000 C   0  0  0  0  0  0  0  0  0  0  0  0
    2.8579   -1.6500    0.0000 C   0  0  0  0  0  0  0  0  0  0  0  0
    2.1434   -1.2375    0.0000 C   0  0  0  0  0  0  0  0  0  0  0  0
  1  2  2  0  0  0  0
  2  3  1  0  0  0  0
  2  4  1  0  0  0  0
  4  5  4  0  0  0  0
  5  6  4  0  0  0  0
  6  7  1  0  0  0  0
  7  8  4  0  0  0  0
  8  9  4  0  0  0  0
  9 10  4  0  0  0  0
 10 11  1  0  0  0  0
 11 12  4  0  0  0  0
 12 13  4  0  0  0  0
 13 14  4  0  0  0  0
 14 15  4  0  0  0  0
 15 16  4  0  0  0  0
 11 16  4  0  0  0  0
 10 17  4  0  0  0  0
 17 18  4  0  0  0  0
  7 18  4  0  0  0  0
  6 19  4  0  0  0  0
 19 20  4  0  0  0  0
 20 21  4  0  0  0  0
 21 22  4  0  0  0  0
 22 23  4  0  0  0  0
 23 24  4  0  0  0  0
 24 25  4  0  0  0  0
  4 25  4  0  0  0  0
 20 25  4  0  0  0  0
M  END
> <IC50(uM)>
200.0

> <Outcome>
0.0

> <BindingDB ID>
51126181

> <BindingDB MonomerID>
50461868

> <BindingDB Ligand Name>
CHEMBL4226739

> <Curation/DataSource>
ChEMBL

> <Article DOI>
10.1021/acs.jmedchem.7b01862

> <PMID>
29727569

> <Patent Number>
?

> <Authors>
Madak, JT; Cuthbertson, CR; Miyata, Y; Tamura, S; Petrunak, EM; Stuckey, JA; Han, Y; He, M; Sun, D; Showalter, HD; Neamati, N

> <Link to Ligand in BindingDB>
http://www.bindingdb.org/bind/chemsearch/marvin/MolStructure.jsp?monomerid=50461868

> <Link to Ligand-Target Pair in BindingDB>
http://www.bindingdb.org/jsp/dbsearch/PrimarySearch_ki.jsp?energyterm=kJ/mole&tag=r21&monomerid=50461868&enzyme=Dihydroorotate+dehydrogenase&column=ki&startPg=0&Increment=50&submit=Search

> <PubChem CID>
145967884

> <PubChem SID>
433929133

$$$$

  Mrv2115 07222212352D          

 28 31  0  0  0  0            999 V2000
    0.0000   -1.6500    0.0000 C   0  0  0  0  0  0  0  0  0  0  0  0
    0.7145   -1.2375    0.0000 C   0  0  0  0  0  0  0  0  0  0  0  0
    0.7145   -0.4125    0.0000 C   0  0  0  0  0  0  0  0  0  0  0  0
    1.4289    0.0000    0.0000 C   0  0  0  0  0  0  0  0  0  0  0  0
    2.1434   -0.4125    0.0000 C   0  0  0  0  0  0  0  0  0  0  0  0
    2.8579    0.0000    0.0000 N   0  0  0  0  0  0  0  0  0  0  0  0
    3.5724   -0.4125    0.0000 C   0  0  0  0  0  0  0  0  0  0  0  0
    4.2868   -0.0000    0.0000 C   0  0  0  0  0  0  0  0  0  0  0  0
    4.2868    0.8250    0.0000 C   0  0  0  0  0  0  0  0  0  0  0  0
    5.0013    1.2375    0.0000 C   0  0  0  0  0  0  0  0  0  0  0  0
    5.7158    0.8250    0.0000 C   0  0  0  0  0  0  0  0  0  0  0  0
    6.4302    1.2375    0.0000 Cl  0  0  0  0  0  0  0  0  0  0  0  0
    5.7158   -0.0000    0.0000 C   0  0  0  0  0  0  0  0  0  0  0  0
    5.0013   -0.4125    0.0000 C   0  0  0  0  0  0  0  0  0  0  0  0
    3.5724   -1.2375    0.0000 C   0  0  0  0  0  0  0  0  0  0  0  0
    2.8579   -1.6500    0.0000 C   0  0  0  0  0  0  0  0  0  0  0  0
    2.8579   -2.4750    0.0000 C   0  0  0  0  0  0  0  0  0  0  0  0
    3.5724   -2.8875    0.0000 O   0  0  0  0  0  0  0  0  0  0  0  0
    2.1434   -2.8875    0.0000 O   0  0  0  0  0  0  0  0  0  0  0  0
    2.1434   -3.7125    0.0000 C   0  0  0  0  0  0  0  0  0  0  0  0
    1.4289   -4.1250    0.0000 C   0  0  0  0  0  0  0  0  0  0  0  0
    1.4289   -4.9500    0.0000 C   0  0  0  0  0  0  0  0  0  0  0  0
    0.7145   -5.3625    0.0000 C   0  0  0  0  0  0  0  0  0  0  0  0
   -0.0000   -4.9500    0.0000 C   0  0  0  0  0  0  0  0  0  0  0  0
   -0.0000   -4.1250    0.0000 C   0  0  0  0  0  0  0  0  0  0  0  0
    0.7145   -3.7125    0.0000 C   0  0  0  0  0  0  0  0  0  0  0  0
    2.1434   -1.2375    0.0000 C   0  0  0  0  0  0  0  0  0  0  0  0
    1.4289   -1.6500    0.0000 C   0  0  0  0  0  0  0  0  0  0  0  0
  1  2  1  0  0  0  0
  2  3  4  0  0  0  0
  3  4  4  0  0  0  0
  4  5  4  0  0  0  0
  5  6  4  0  0  0  0
  6  7  4  0  0  0  0
  7  8  1  0  0  0  0
  8  9  4  0  0  0  0
  9 10  4  0  0  0  0
 10 11  4  0  0  0  0
 11 12  1  0  0  0  0
 11 13  4  0  0  0  0
 13 14  4  0  0  0  0
  8 14  4  0  0  0  0
  7 15  4  0  0  0  0
 15 16  4  0  0  0  0
 16 17  1  0  0  0  0
 17 18  2  0  0  0  0
 17 19  1  0  0  0  0
 19 20  1  0  0  0  0
 20 21  1  0  0  0  0
 21 22  4  0  0  0  0
 22 23  4  0  0  0  0
 23 24  4  0  0  0  0
 24 25  4  0  0  0  0
 25 26  4  0  0  0  0
 21 26  4  0  0  0  0
 16 27  4  0  0  0  0
  5 27  4  0  0  0  0
 27 28  4  0  0  0  0
  2 28  4  0  0  0  0
M  END
> <IC50(uM)>
7.37

> <Outcome>
0.0

> <BindingDB ID>
51311341

> <BindingDB MonomerID>
50532166

> <BindingDB Ligand Name>
CHEMBL4586996

> <Curation/DataSource>
ChEMBL

> <Article DOI>
10.1016/j.bmcl.2019.01.038

> <PMID>
30738663

> <Patent Number>
?

> <Authors>
Vyas, VK; Qureshi, G; Oza, D; Patel, H; Parmar, K; Patel, P; Ghate, MD

> <Link to Ligand in BindingDB>
http://www.bindingdb.org/bind/chemsearch/marvin/MolStructure.jsp?monomerid=50532166

> <Link to Ligand-Target Pair in BindingDB>
http://www.bindingdb.org/jsp/dbsearch/PrimarySearch_ki.jsp?energyterm=kJ/mole&tag=r21&monomerid=50532166&enzyme=Dihydroorotate+dehydrogenase&column=ki&startPg=0&Increment=50&submit=Search

> <PubChem CID>
155566700

> <PubChem SID>
440740748

$$$$

  Mrv2115 07222212352D          

 20 21  0  0  0  0            999 V2000
    0.6078    1.1759    0.0000 C   0  0  0  0  0  0  0  0  0  0  0  0
    1.3222    0.7634    0.0000 C   0  0  0  0  0  0  0  0  0  0  0  0
    1.3222   -0.0616    0.0000 O   0  0  0  0  0  0  0  0  0  0  0  0
    2.0367   -0.4741    0.0000 C   0  0  0  0  0  0  0  0  0  0  0  0
    2.7512   -0.0616    0.0000 O   0  0  0  0  0  0  0  0  0  0  0  0
    2.0367   -1.2991    0.0000 C   0  0  0  0  0  0  0  0  0  0  0  0
    2.7041   -1.7840    0.0000 S   0  0  0  0  0  0  0  0  0  0  0  0
    2.4492   -2.5687    0.0000 C   0  0  0  0  0  0  0  0  0  0  0  0
    2.9341   -3.2361    0.0000 N   0  0  0  0  0  0  0  0  0  0  0  0
    2.5986   -3.9898    0.0000 C   0  0  0  0  0  0  0  0  0  0  0  0
    3.0835   -4.6572    0.0000 C   0  0  0  0  0  0  0  0  0  0  0  0
    2.7479   -5.4109    0.0000 C   0  0  0  0  0  0  0  0  0  0  0  0
    1.9275   -5.4971    0.0000 C   0  0  0  0  0  0  0  0  0  0  0  0
    1.5919   -6.2508    0.0000 C   0  0  0  0  0  0  0  0  0  0  0  0
    1.4425   -4.8297    0.0000 C   0  0  0  0  0  0  0  0  0  0  0  0
    0.6221   -4.9159    0.0000 F   0  0  0  0  0  0  0  0  0  0  0  0
    1.7781   -4.0760    0.0000 C   0  0  0  0  0  0  0  0  0  0  0  0
    1.6242   -2.5687    0.0000 N   0  0  0  0  0  0  0  0  0  0  0  0
    1.3693   -1.7840    0.0000 C   0  0  0  0  0  0  0  0  0  0  0  0
    0.5846   -1.5291    0.0000 C   0  0  0  0  0  0  0  0  0  0  0  0
  1  2  1  0  0  0  0
  2  3  1  0  0  0  0
  3  4  1  0  0  0  0
  4  5  2  0  0  0  0
  4  6  1  0  0  0  0
  6  7  4  0  0  0  0
  7  8  4  0  0  0  0
  8  9  1  0  0  0  0
  9 10  1  0  0  0  0
 10 11  4  0  0  0  0
 11 12  4  0  0  0  0
 12 13  4  0  0  0  0
 13 14  1  0  0  0  0
 13 15  4  0  0  0  0
 15 16  1  0  0  0  0
 15 17  4  0  0  0  0
 10 17  4  0  0  0  0
  8 18  4  0  0  0  0
 18 19  4  0  0  0  0
  6 19  4  0  0  0  0
 19 20  1  0  0  0  0
M  END
> <IC50(uM)>
1.987

> <Outcome>
0.0

> <BindingDB ID>
50312472

> <BindingDB MonomerID>
50071784

> <BindingDB Ligand Name>
CHEMBL3410579

> <Curation/DataSource>
ChEMBL

> <Article DOI>
10.1021/jm501127s

> <PMID>
25580811

> <Patent Number>
?

> <Authors>
Zhu, J; Han, L; Diao, Y; Ren, X; Xu, M; Xu, L; Li, S; Li, Q; Dong, D; Huang, J; Liu, X; Zhao, Z; Wang, R; Zhu, L; Xu, Y; Qian, X; Li, H

> <Link to Ligand in BindingDB>
http://www.bindingdb.org/bind/chemsearch/marvin/MolStructure.jsp?monomerid=50071784

> <Link to Ligand-Target Pair in BindingDB>
http://www.bindingdb.org/jsp/dbsearch/PrimarySearch_ki.jsp?energyterm=kJ/mole&tag=r21&monomerid=50071784&enzyme=Dihydroorotate+dehydrogenase&column=ki&startPg=0&Increment=50&submit=Search

> <PubChem CID>
25495325

> <PubChem SID>
103965494

$$$$

  Mrv2115 07222212352D          

 30 33  0  0  0  0            999 V2000
   -0.7145   -2.0625    0.0000 N   0  0  0  0  0  0  0  0  0  0  0  0
    0.0000   -1.6500    0.0000 C   0  0  0  0  0  0  0  0  0  0  0  0
    0.7145   -1.2375    0.0000 C   0  0  0  0  0  0  0  0  0  0  0  0
    0.7145   -0.4125    0.0000 C   0  0  0  0  0  0  0  0  0  0  0  0
    0.0000    0.0000    0.0000 C   0  0  0  0  0  0  0  0  0  0  0  0
   -0.7145   -0.4125    0.0000 C   0  0  0  0  0  0  0  0  0  0  0  0
   -1.4289    0.0000    0.0000 C   0  0  0  0  0  0  0  0  0  0  0  0
   -1.4289    0.8250    0.0000 C   0  0  0  0  0  0  0  0  0  0  0  0
   -2.1434    1.2375    0.0000 C   0  0  0  0  0  0  0  0  0  0  0  0
   -2.8579    0.8250    0.0000 C   0  0  0  0  0  0  0  0  0  0  0  0
   -3.5724    1.2375    0.0000 C   0  0  0  0  0  0  0  0  0  0  0  0
   -3.5724    2.0625    0.0000 C   0  0  0  0  0  0  0  0  0  0  0  0
   -2.8579    2.4750    0.0000 C   0  0  0  0  0  0  0  0  0  0  0  0
   -2.1434    2.0625    0.0000 C   0  0  0  0  0  0  0  0  0  0  0  0
   -1.4289    2.4750    0.0000 O   0  0  0  0  0  0  0  0  0  0  0  0
   -1.4289    3.3000    0.0000 C   0  0  0  0  0  0  0  0  0  0  0  0
   -1.4289    4.1250    0.0000 F   0  0  0  0  0  0  0  0  0  0  0  0
   -2.2539    3.3000    0.0000 F   0  0  0  0  0  0  0  0  0  0  0  0
   -0.6039    3.3000    0.0000 F   0  0  0  0  0  0  0  0  0  0  0  0
   -0.7145    1.2375    0.0000 C   0  0  0  0  0  0  0  0  0  0  0  0
    0.0000    0.8250    0.0000 C   0  0  0  0  0  0  0  0  0  0  0  0
    1.4289    0.0000    0.0000 N   0  0  0  0  0  0  0  0  0  0  0  0
    2.1434   -0.4125    0.0000 C   0  0  0  0  0  0  0  0  0  0  0  0
    2.8579    0.0000    0.0000 C   0  0  0  0  0  0  0  0  0  0  0  0
    3.5724   -0.4125    0.0000 C   0  0  0  0  0  0  0  0  0  0  0  0
    3.5724   -1.2375    0.0000 N   0  0  0  0  0  0  0  0  0  0  0  0
    2.8579   -1.6500    0.0000 C   0  0  0  0  0  0  0  0  0  0  0  0
    2.1434   -1.2375    0.0000 C   0  0  0  0  0  0  0  0  0  0  0  0
    1.4289   -1.6500    0.0000 C   0  0  0  0  0  0  0  0  0  0  0  0
    1.4289   -2.4750    0.0000 O   0  0  0  0  0  0  0  0  0  0  0  0
  1  2  3  0  0  0  0
  2  3  1  0  0  0  0
  3  4  4  0  0  0  0
  4  5  1  0  0  0  0
  5  6  4  0  0  0  0
  6  7  4  0  0  0  0
  7  8  4  0  0  0  0
  8  9  1  0  0  0  0
  9 10  4  0  0  0  0
 10 11  4  0  0  0  0
 11 12  4  0  0  0  0
 12 13  4  0  0  0  0
 13 14  4  0  0  0  0
  9 14  4  0  0  0  0
 14 15  1  0  0  0  0
 15 16  1  0  0  0  0
 16 17  1  0  0  0  0
 16 18  1  0  0  0  0
 16 19  1  0  0  0  0
  8 20  4  0  0  0  0
 20 21  4  0  0  0  0
  5 21  4  0  0  0  0
  4 22  4  0  0  0  0
 22 23  4  0  0  0  0
 23 24  4  0  0  0  0
 24 25  4  0  0  0  0
 25 26  4  0  0  0  0
 26 27  4  0  0  0  0
 27 28  4  0  0  0  0
 23 28  4  0  0  0  0
 28 29  4  0  0  0  0
  3 29  4  0  0  0  0
 29 30  1  0  0  0  0
M  END
> <IC50(uM)>
0.2

> <Outcome>
1.0

> <BindingDB ID>
50720827

> <BindingDB MonomerID>
50365480

> <BindingDB Ligand Name>
CHEMBL1957366

> <Curation/DataSource>
ChEMBL

> <Article DOI>
10.1016/j.bmcl.2012.01.046

> <PMID>
22321214

> <Patent Number>
?

> <Authors>
Bauer, U; Giordanetto, F; Bauer, M; O'Mahony, G; Johansson, KE; Knecht, W; Hartleib-Geschwindner, J; Carlsson, ET; Enroth, C

> <Link to Ligand in BindingDB>
http://www.bindingdb.org/bind/chemsearch/marvin/MolStructure.jsp?monomerid=50365480

> <Link to Ligand-Target Pair in BindingDB>
http://www.bindingdb.org/jsp/dbsearch/PrimarySearch_ki.jsp?energyterm=kJ/mole&tag=r21&monomerid=50365480&enzyme=Dihydroorotate+dehydrogenase&column=ki&startPg=0&Increment=50&submit=Search

> <PubChem CID>
57328385

> <PubChem SID>
136969542

$$$$

  Mrv2115 07222212352D          

 37 40  0  0  0  0            999 V2000
    0.0000   -1.6500    0.0000 C   0  0  0  0  0  0  0  0  0  0  0  0
    0.7145   -1.2375    0.0000 C   0  0  0  0  0  0  0  0  0  0  0  0
    0.7145   -0.4125    0.0000 C   0  0  0  0  0  0  0  0  0  0  0  0
    0.0000    0.0000    0.0000 C   0  0  0  0  0  0  0  0  0  0  0  0
   -0.7145   -0.4125    0.0000 O   0  0  0  0  0  0  0  0  0  0  0  0
    0.0000    0.8250    0.0000 N   0  0  0  0  0  0  0  0  0  0  0  0
   -0.7145    1.2375    0.0000 C   0  0  0  0  0  0  0  0  0  0  0  0
   -1.4289    0.8250    0.0000 C   0  0  0  0  0  0  0  0  0  0  0  0
   -1.4289    0.0000    0.0000 F   0  0  0  0  0  0  0  0  0  0  0  0
   -2.1434    1.2375    0.0000 C   0  0  0  0  0  0  0  0  0  0  0  0
   -2.1434    2.0625    0.0000 C   0  0  0  0  0  0  0  0  0  0  0  0
   -2.8579    2.4750    0.0000 C   0  0  0  0  0  0  0  0  0  0  0  0
   -3.5724    2.0625    0.0000 C   0  0  0  0  0  0  0  0  0  0  0  0
   -4.2868    2.4750    0.0000 C   0  0  0  0  0  0  0  0  0  0  0  0
   -4.2868    3.3000    0.0000 C   0  0  0  0  0  0  0  0  0  0  0  0
   -3.5724    3.7125    0.0000 C   0  0  0  0  0  0  0  0  0  0  0  0
   -3.5724    4.5375    0.0000 F   0  0  0  0  0  0  0  0  0  0  0  0
   -2.8579    3.3000    0.0000 C   0  0  0  0  0  0  0  0  0  0  0  0
   -1.4289    2.4750    0.0000 C   0  0  0  0  0  0  0  0  0  0  0  0
   -0.7145    2.0625    0.0000 C   0  0  0  0  0  0  0  0  0  0  0  0
    0.0000    2.4750    0.0000 F   0  0  0  0  0  0  0  0  0  0  0  0
    1.4289    0.0000    0.0000 N   0  0  0  0  0  0  0  0  0  0  0  0
    2.1434   -0.4125    0.0000 C   0  0  0  0  0  0  0  0  0  0  0  0
    2.8579    0.0000    0.0000 C   0  0  0  0  0  0  0  0  0  0  0  0
    3.5724   -0.4125    0.0000 C   0  0  0  0  0  0  0  0  0  0  0  0
    3.5724   -1.2375    0.0000 C   0  0  0  0  0  0  0  0  0  0  0  0
    4.2868   -1.6500    0.0000 O   0  0  0  0  0  0  0  0  0  0  0  0
    5.0013   -1.2375    0.0000 C   0  0  0  0  0  0  0  0  0  0  0  0
    5.7158   -0.8250    0.0000 F   0  0  0  0  0  0  0  0  0  0  0  0
    5.4138   -1.9520    0.0000 F   0  0  0  0  0  0  0  0  0  0  0  0
    4.5888   -0.5230    0.0000 F   0  0  0  0  0  0  0  0  0  0  0  0
    2.8579   -1.6500    0.0000 C   0  0  0  0  0  0  0  0  0  0  0  0
    2.1434   -1.2375    0.0000 C   0  0  0  0  0  0  0  0  0  0  0  0
    1.4289   -1.6500    0.0000 C   0  0  0  0  0  0  0  0  0  0  0  0
    1.4289   -2.4750    0.0000 C   0  0  0  0  0  0  0  0  0  0  0  0
    0.7145   -2.8875    0.0000 O   0  0  0  0  0  0  0  0  0  0  0  0
    2.1434   -2.8875    0.0000 O   0  0  0  0  0  0  0  0  0  0  0  0
  1  2  1  0  0  0  0
  2  3  4  0  0  0  0
  3  4  1  0  0  0  0
  4  5  2  0  0  0  0
  4  6  1  0  0  0  0
  6  7  1  0  0  0  0
  7  8  4  0  0  0  0
  8  9  1  0  0  0  0
  8 10  4  0  0  0  0
 10 11  4  0  0  0  0
 11 12  1  0  0  0  0
 12 13  4  0  0  0  0
 13 14  4  0  0  0  0
 14 15  4  0  0  0  0
 15 16  4  0  0  0  0
 16 17  1  0  0  0  0
 16 18  4  0  0  0  0
 12 18  4  0  0  0  0
 11 19  4  0  0  0  0
 19 20  4  0  0  0  0
  7 20  4  0  0  0  0
 20 21  1  0  0  0  0
  3 22  4  0  0  0  0
 22 23  4  0  0  0  0
 23 24  4  0  0  0  0
 24 25  4  0  0  0  0
 25 26  4  0  0  0  0
 26 27  1  0  0  0  0
 27 28  1  0  0  0  0
 28 29  1  0  0  0  0
 28 30  1  0  0  0  0
 28 31  1  0  0  0  0
 26 32  4  0  0  0  0
 32 33  4  0  0  0  0
 23 33  4  0  0  0  0
 33 34  4  0  0  0  0
  2 34  4  0  0  0  0
 34 35  1  0  0  0  0
 35 36  2  0  0  0  0
 35 37  1  0  0  0  0
M  END
> <IC50(uM)>
1.5

> <Outcome>
0.0

> <BindingDB ID>
50107532

> <BindingDB MonomerID>
50020689

> <BindingDB Ligand Name>
CHEMBL3290845

> <Curation/DataSource>
ChEMBL

> <Article DOI>
10.1016/j.ejmech.2014.05.064

> <PMID>
24929289

> <Patent Number>
?

> <Authors>
Vyas, VK; Variya, B; Ghate, MD

> <Link to Ligand in BindingDB>
http://www.bindingdb.org/bind/chemsearch/marvin/MolStructure.jsp?monomerid=50020689

> <Link to Ligand-Target Pair in BindingDB>
http://www.bindingdb.org/jsp/dbsearch/PrimarySearch_ki.jsp?energyterm=kJ/mole&tag=r21&monomerid=50020689&enzyme=Dihydroorotate+dehydrogenase&column=ki&startPg=0&Increment=50&submit=Search

> <PubChem CID>
90644864

> <PubChem SID>
103931448

$$$$

  Mrv2115 07222212352D          

 30 34  0  0  0  0            999 V2000
    3.3523   -0.2854    0.0000 O   0  0  0  0  0  0  0  0  0  0  0  0
    3.3523   -1.1104    0.0000 C   0  0  0  0  0  0  0  0  0  0  0  0
    4.0668   -1.5229    0.0000 C   0  0  0  0  0  0  0  0  0  0  0  0
    4.7812   -1.1104    0.0000 C   0  0  0  0  0  0  0  0  0  0  0  0
    5.4957   -1.5229    0.0000 C   0  0  0  0  0  0  0  0  0  0  0  0
    5.4957   -2.3479    0.0000 C   0  0  0  0  0  0  0  0  0  0  0  0
    4.7812   -2.7604    0.0000 C   0  0  0  0  0  0  0  0  0  0  0  0
    4.0668   -2.3479    0.0000 C   0  0  0  0  0  0  0  0  0  0  0  0
    3.3523   -2.7604    0.0000 C   0  0  0  0  0  0  0  0  0  0  0  0
    3.3523   -3.5854    0.0000 O   0  0  0  0  0  0  0  0  0  0  0  0
    2.6378   -2.3479    0.0000 C   0  0  0  0  0  0  0  0  0  0  0  0
    2.6378   -1.5229    0.0000 C   0  0  0  0  0  0  0  0  0  0  0  0
    1.8532   -1.2680    0.0000 N   0  0  0  0  0  0  0  0  0  0  0  0
    1.3683   -1.9354    0.0000 N   0  0  0  0  0  0  0  0  0  0  0  0
    1.8532   -2.6029    0.0000 N   0  0  0  0  0  0  0  0  0  0  0  0
    1.5983   -3.3875    0.0000 C   0  0  0  0  0  0  0  0  0  0  0  0
    2.1503   -4.0006    0.0000 C   0  0  0  0  0  0  0  0  0  0  0  0
    1.8953   -4.7852    0.0000 C   0  0  0  0  0  0  0  0  0  0  0  0
    2.4474   -5.3983    0.0000 F   0  0  0  0  0  0  0  0  0  0  0  0
    1.0884   -4.9567    0.0000 C   0  0  0  0  0  0  0  0  0  0  0  0
    0.8334   -5.7414    0.0000 C   0  0  0  0  0  0  0  0  0  0  0  0
    1.3855   -6.3545    0.0000 C   0  0  0  0  0  0  0  0  0  0  0  0
    1.1305   -7.1391    0.0000 C   0  0  0  0  0  0  0  0  0  0  0  0
    0.3236   -7.3106    0.0000 C   0  0  0  0  0  0  0  0  0  0  0  0
    0.0686   -8.0952    0.0000 F   0  0  0  0  0  0  0  0  0  0  0  0
   -0.2285   -6.6975    0.0000 C   0  0  0  0  0  0  0  0  0  0  0  0
    0.0265   -5.9129    0.0000 C   0  0  0  0  0  0  0  0  0  0  0  0
    0.5363   -4.3437    0.0000 C   0  0  0  0  0  0  0  0  0  0  0  0
   -0.2706   -4.5152    0.0000 F   0  0  0  0  0  0  0  0  0  0  0  0
    0.7913   -3.5590    0.0000 C   0  0  0  0  0  0  0  0  0  0  0  0
  1  2  2  0  0  0  0
  2  3  1  0  0  0  0
  3  4  4  0  0  0  0
  4  5  4  0  0  0  0
  5  6  4  0  0  0  0
  6  7  4  0  0  0  0
  7  8  4  0  0  0  0
  3  8  4  0  0  0  0
  8  9  1  0  0  0  0
  9 10  2  0  0  0  0
  9 11  1  0  0  0  0
 11 12  4  0  0  0  0
  2 12  1  0  0  0  0
 12 13  4  0  0  0  0
 13 14  4  0  0  0  0
 14 15  4  0  0  0  0
 11 15  4  0  0  0  0
 15 16  1  0  0  0  0
 16 17  4  0  0  0  0
 17 18  4  0  0  0  0
 18 19  1  0  0  0  0
 18 20  4  0  0  0  0
 20 21  1  0  0  0  0
 21 22  4  0  0  0  0
 22 23  4  0  0  0  0
 23 24  4  0  0  0  0
 24 25  1  0  0  0  0
 24 26  4  0  0  0  0
 26 27  4  0  0  0  0
 21 27  4  0  0  0  0
 20 28  4  0  0  0  0
 28 29  1  0  0  0  0
 28 30  4  0  0  0  0
 16 30  4  0  0  0  0
M  END
> <IC50(uM)>
0.006900000000000001

> <Outcome>
1.0

> <BindingDB ID>
51338201

> <BindingDB MonomerID>
50541675

> <BindingDB Ligand Name>
CHEMBL4632909

> <Curation/DataSource>
ChEMBL

> <Article DOI>
10.1021/acs.jmedchem.0c00512

> <PMID>
32496056

> <Patent Number>
?

> <Authors>
Zuo, Z; Liu, X; Qian, X; Zeng, T; Sang, N; Liu, H; Zhou, Y; Tao, L; Zhou, X; Su, N; Yu, Y; Chen, Q; Luo, Y; Zhao, Y

> <Link to Ligand in BindingDB>
http://www.bindingdb.org/bind/chemsearch/marvin/MolStructure.jsp?monomerid=50541675

> <Link to Ligand-Target Pair in BindingDB>
http://www.bindingdb.org/jsp/dbsearch/PrimarySearch_ki.jsp?energyterm=kJ/mole&tag=r21&monomerid=50541675&enzyme=Dihydroorotate+dehydrogenase&column=ki&startPg=0&Increment=50&submit=Search

> <PubChem CID>
156010064

> <PubChem SID>
442143238

$$$$

  Mrv2115 07222212352D          

 18 19  0  0  0  0            999 V2000
    1.4289   -1.6500    0.0000 C   0  0  0  0  0  0  0  0  0  0  0  0
    1.4289   -2.4750    0.0000 C   0  0  0  0  0  0  0  0  0  0  0  0
    2.1434   -2.8875    0.0000 C   0  0  0  0  0  0  0  0  0  0  0  0
    2.1434   -3.7125    0.0000 C   0  0  0  0  0  0  0  0  0  0  0  0
    1.4289   -4.1250    0.0000 C   0  0  0  0  0  0  0  0  0  0  0  0
    1.4289   -4.9500    0.0000 C   0  0  0  0  0  0  0  0  0  0  0  0
    0.7145   -3.7125    0.0000 C   0  0  0  0  0  0  0  0  0  0  0  0
    0.0000   -4.1250    0.0000 N   0  0  0  0  0  0  0  0  0  0  0  0
    0.0000   -4.9500    0.0000 C   0  0  0  0  0  0  0  0  0  0  0  0
   -0.7145   -5.3625    0.0000 C   0  0  0  0  0  0  0  0  0  0  0  0
   -0.7145   -6.1875    0.0000 C   0  0  0  0  0  0  0  0  0  0  0  0
   -1.4289   -6.6000    0.0000 C   0  0  0  0  0  0  0  0  0  0  0  0
   -2.1434   -6.1875    0.0000 C   0  0  0  0  0  0  0  0  0  0  0  0
   -2.1434   -5.3625    0.0000 C   0  0  0  0  0  0  0  0  0  0  0  0
   -2.8579   -4.9500    0.0000 O   0  0  0  0  0  0  0  0  0  0  0  0
   -1.4289   -4.9500    0.0000 C   0  0  0  0  0  0  0  0  0  0  0  0
   -1.4289   -4.1250    0.0000 O   0  0  0  0  0  0  0  0  0  0  0  0
    0.7145   -2.8875    0.0000 C   0  0  0  0  0  0  0  0  0  0  0  0
  1  2  1  0  0  0  0
  2  3  4  0  0  0  0
  3  4  4  0  0  0  0
  4  5  4  0  0  0  0
  5  6  1  0  0  0  0
  5  7  4  0  0  0  0
  7  8  1  0  0  0  0
  8  9  2  0  0  0  0
  9 10  1  0  0  0  0
 10 11  4  0  0  0  0
 11 12  4  0  0  0  0
 12 13  4  0  0  0  0
 13 14  4  0  0  0  0
 14 15  1  0  0  0  0
 14 16  4  0  0  0  0
 10 16  4  0  0  0  0
 16 17  1  0  0  0  0
  7 18  4  0  0  0  0
  2 18  4  0  0  0  0
M  END
> <IC50(uM)>
17.75

> <Outcome>
0.0

> <BindingDB ID>
50971926

> <BindingDB MonomerID>
50398634

> <BindingDB Ligand Name>
CHEMBL2177494

> <Curation/DataSource>
ChEMBL

> <Article DOI>
10.1021/jm300630p

> <PMID>
22984987

> <Patent Number>
?

> <Authors>
Diao, Y; Lu, W; Jin, H; Zhu, J; Han, L; Xu, M; Gao, R; Shen, X; Zhao, Z; Liu, X; Xu, Y; Huang, J; Li, H

> <Link to Ligand in BindingDB>
http://www.bindingdb.org/bind/chemsearch/marvin/MolStructure.jsp?monomerid=50398634

> <Link to Ligand-Target Pair in BindingDB>
http://www.bindingdb.org/jsp/dbsearch/PrimarySearch_ki.jsp?energyterm=kJ/mole&tag=r21&monomerid=50398634&enzyme=Dihydroorotate+dehydrogenase&column=ki&startPg=0&Increment=50&submit=Search

> <PubChem CID>
6537724

> <PubChem SID>
163347658

$$$$

  Mrv2115 07222212352D          

 19 20  0  0  0  0            999 V2000
    1.4289   -1.6500    0.0000 C   0  0  0  0  0  0  0  0  0  0  0  0
    1.4289   -2.4750    0.0000 C   0  0  0  0  0  0  0  0  0  0  0  0
    2.0964   -2.9599    0.0000 O   0  0  0  0  0  0  0  0  0  0  0  0
    1.8414   -3.7445    0.0000 N   0  0  0  0  0  0  0  0  0  0  0  0
    1.0164   -3.7445    0.0000 C   0  0  0  0  0  0  0  0  0  0  0  0
    0.7615   -2.9599    0.0000 C   0  0  0  0  0  0  0  0  0  0  0  0
   -0.0231   -2.7050    0.0000 C   0  0  0  0  0  0  0  0  0  0  0  0
   -0.1946   -1.8980    0.0000 O   0  0  0  0  0  0  0  0  0  0  0  0
   -0.6362   -3.2570    0.0000 N   0  0  0  0  0  0  0  0  0  0  0  0
   -1.4208   -3.0021    0.0000 C   0  0  0  0  0  0  0  0  0  0  0  0
   -2.0339   -3.5541    0.0000 C   0  0  0  0  0  0  0  0  0  0  0  0
   -2.8186   -3.2992    0.0000 C   0  0  0  0  0  0  0  0  0  0  0  0
   -2.9901   -2.4922    0.0000 C   0  0  0  0  0  0  0  0  0  0  0  0
   -3.7747   -2.2373    0.0000 C   0  0  0  0  0  0  0  0  0  0  0  0
   -4.5593   -1.9823    0.0000 F   0  0  0  0  0  0  0  0  0  0  0  0
   -3.5198   -1.4526    0.0000 F   0  0  0  0  0  0  0  0  0  0  0  0
   -4.0296   -3.0219    0.0000 F   0  0  0  0  0  0  0  0  0  0  0  0
   -2.3770   -1.9402    0.0000 C   0  0  0  0  0  0  0  0  0  0  0  0
   -1.5924   -2.1951    0.0000 C   0  0  0  0  0  0  0  0  0  0  0  0
  1  2  1  0  0  0  0
  2  3  4  0  0  0  0
  3  4  4  0  0  0  0
  4  5  4  0  0  0  0
  5  6  4  0  0  0  0
  2  6  4  0  0  0  0
  6  7  1  0  0  0  0
  7  8  2  0  0  0  0
  7  9  1  0  0  0  0
  9 10  1  0  0  0  0
 10 11  4  0  0  0  0
 11 12  4  0  0  0  0
 12 13  4  0  0  0  0
 13 14  1  0  0  0  0
 14 15  1  0  0  0  0
 14 16  1  0  0  0  0
 14 17  1  0  0  0  0
 13 18  4  0  0  0  0
 18 19  4  0  0  0  0
 10 19  4  0  0  0  0
M  END
> <IC50(uM)>
11.5

> <Outcome>
0.0

> <BindingDB ID>
50123300; 50786770

> <BindingDB MonomerID>
50054601

> <BindingDB Ligand Name>
5-Methyl-N-(4-(trifluoromethyl)phenyl)-4-isoxazolecarboxamide::5-Methylisoxazole-4-carboxylic acid (4-trifluoromethyl)anilide::5-methyl-N-[4-(trifluoromethyl)phenyl]-1,2-oxazole-4-carboxamide::Arava (TN)::CHEMBL960::LEFLUNOMIDE::alpha,alpha,alpha-Trifluoro-5-methyl-4-isoxazolecarboxy-p-toluidide

> <Curation/DataSource>
ChEMBL

> <Article DOI>
10.1016/s0960-894x(98)00365-5; 10.1021/jm981028c

> <PMID>
9873513; 9719606

> <Patent Number>
?

> <Authors>
Albert, R; Knecht, H; Andersen, E; Hungerford, V; Schreier, MH; Papageorgiou, C; Papageorgiou, C; Albert, R; Floersheim, P; Lemaire, M; Bitch, F; Weber, HP; Andersen, E; Hungerford, V; Schreier, MH

> <Link to Ligand in BindingDB>
http://www.bindingdb.org/bind/chemsearch/marvin/MolStructure.jsp?monomerid=50054601

> <Link to Ligand-Target Pair in BindingDB>
http://www.bindingdb.org/jsp/dbsearch/PrimarySearch_ki.jsp?energyterm=kJ/mole&tag=r21&monomerid=50054601&enzyme=Dihydroorotate+dehydrogenase&column=ki&startPg=0&Increment=50&submit=Search

> <PubChem CID>
3899

> <PubChem SID>
103951186

$$$$

  Mrv2115 07222212352D          

 22 23  0  0  0  0            999 V2000
    0.8212    1.1759    0.0000 C   0  0  0  0  0  0  0  0  0  0  0  0
    0.1067    0.7634    0.0000 C   0  0  0  0  0  0  0  0  0  0  0  0
    0.1067   -0.0616    0.0000 O   0  0  0  0  0  0  0  0  0  0  0  0
   -0.6078   -0.4741    0.0000 C   0  0  0  0  0  0  0  0  0  0  0  0
   -1.3222   -0.0616    0.0000 O   0  0  0  0  0  0  0  0  0  0  0  0
   -0.6078   -1.2991    0.0000 C   0  0  0  0  0  0  0  0  0  0  0  0
    0.0597   -1.7840    0.0000 C   0  0  0  0  0  0  0  0  0  0  0  0
    0.8443   -1.5291    0.0000 O   0  0  0  0  0  0  0  0  0  0  0  0
   -0.1953   -2.5687    0.0000 C   0  0  0  0  0  0  0  0  0  0  0  0
   -1.0203   -2.5687    0.0000 S   0  0  0  0  0  0  0  0  0  0  0  0
   -1.2752   -1.7840    0.0000 C   0  0  0  0  0  0  0  0  0  0  0  0
   -2.0598   -1.5291    0.0000 N   0  0  0  0  0  0  0  0  0  0  0  0
   -2.6729   -2.0811    0.0000 C   0  0  0  0  0  0  0  0  0  0  0  0
   -2.5014   -2.8881    0.0000 C   0  0  0  0  0  0  0  0  0  0  0  0
   -3.1145   -3.4401    0.0000 C   0  0  0  0  0  0  0  0  0  0  0  0
   -3.8991   -3.1852    0.0000 C   0  0  0  0  0  0  0  0  0  0  0  0
   -4.0706   -2.3782    0.0000 C   0  0  0  0  0  0  0  0  0  0  0  0
   -4.8553   -2.1233    0.0000 C   0  0  0  0  0  0  0  0  0  0  0  0
   -5.6399   -1.8683    0.0000 F   0  0  0  0  0  0  0  0  0  0  0  0
   -4.6003   -1.3387    0.0000 F   0  0  0  0  0  0  0  0  0  0  0  0
   -5.1102   -2.9079    0.0000 F   0  0  0  0  0  0  0  0  0  0  0  0
   -3.4575   -1.8262    0.0000 C   0  0  0  0  0  0  0  0  0  0  0  0
  1  2  1  0  0  0  0
  2  3  1  0  0  0  0
  3  4  1  0  0  0  0
  4  5  2  0  0  0  0
  4  6  1  0  0  0  0
  6  7  4  0  0  0  0
  7  8  1  0  0  0  0
  7  9  4  0  0  0  0
  9 10  4  0  0  0  0
 10 11  4  0  0  0  0
  6 11  4  0  0  0  0
 11 12  1  0  0  0  0
 12 13  1  0  0  0  0
 13 14  4  0  0  0  0
 14 15  4  0  0  0  0
 15 16  4  0  0  0  0
 16 17  4  0  0  0  0
 17 18  1  0  0  0  0
 18 19  1  0  0  0  0
 18 20  1  0  0  0  0
 18 21  1  0  0  0  0
 17 22  4  0  0  0  0
 13 22  4  0  0  0  0
M  END
> <IC50(uM)>
50.0

> <Outcome>
0.0

> <BindingDB ID>
51079177

> <BindingDB MonomerID>
50441285

> <BindingDB Ligand Name>
CHEMBL2431508

> <Curation/DataSource>
ChEMBL

> <Article DOI>
10.1021/jm400938g

> <PMID>
24073986

> <Patent Number>
?

> <Authors>
Xu, M; Zhu, J; Diao, Y; Zhou, H; Ren, X; Sun, D; Huang, J; Han, D; Zhao, Z; Zhu, L; Xu, Y; Li, H

> <Link to Ligand in BindingDB>
http://www.bindingdb.org/bind/chemsearch/marvin/MolStructure.jsp?monomerid=50441285

> <Link to Ligand-Target Pair in BindingDB>
http://www.bindingdb.org/jsp/dbsearch/PrimarySearch_ki.jsp?energyterm=kJ/mole&tag=r21&monomerid=50441285&enzyme=Dihydroorotate+dehydrogenase&column=ki&startPg=0&Increment=50&submit=Search

> <PubChem CID>
91898846

> <PubChem SID>
175453602

$$$$

  Mrv2115 07222212352D          

 25 27  0  0  0  0            999 V2000
    0.7145   -0.4125    0.0000 C   0  0  0  0  0  0  0  0  0  0  0  0
    0.7145   -1.2375    0.0000 C   0  0  0  0  0  0  0  0  0  0  0  0
    1.3819   -1.7224    0.0000 S   0  0  0  0  0  0  0  0  0  0  0  0
    1.1270   -2.5070    0.0000 C   0  0  0  0  0  0  0  0  0  0  0  0
    1.6119   -3.1745    0.0000 N   0  0  0  0  0  0  0  0  0  0  0  0
    1.2763   -3.9282    0.0000 C   0  0  0  0  0  0  0  0  0  0  0  0
    2.4324   -3.0882    0.0000 N   0  0  0  0  0  0  0  0  0  0  0  0
    2.7679   -2.3346    0.0000 C   0  0  0  0  0  0  0  0  0  0  0  0
    3.5884   -2.2483    0.0000 C   0  0  0  0  0  0  0  0  0  0  0  0
    3.9240   -1.4947    0.0000 C   0  0  0  0  0  0  0  0  0  0  0  0
    4.7445   -1.4084    0.0000 C   0  0  0  0  0  0  0  0  0  0  0  0
    5.2294   -2.0759    0.0000 C   0  0  0  0  0  0  0  0  0  0  0  0
    4.8938   -2.8295    0.0000 C   0  0  0  0  0  0  0  0  0  0  0  0
    4.0733   -2.9158    0.0000 C   0  0  0  0  0  0  0  0  0  0  0  0
    3.7378   -3.6695    0.0000 C   0  0  0  0  0  0  0  0  0  0  0  0
    2.9173   -3.7557    0.0000 O   0  0  0  0  0  0  0  0  0  0  0  0
    4.2227   -4.3369    0.0000 O   0  0  0  0  0  0  0  0  0  0  0  0
    0.3020   -2.5070    0.0000 N   0  0  0  0  0  0  0  0  0  0  0  0
    0.0470   -1.7224    0.0000 C   0  0  0  0  0  0  0  0  0  0  0  0
   -0.7376   -1.4675    0.0000 C   0  0  0  0  0  0  0  0  0  0  0  0
   -1.3507   -2.0195    0.0000 C   0  0  0  0  0  0  0  0  0  0  0  0
   -2.1353   -1.7646    0.0000 C   0  0  0  0  0  0  0  0  0  0  0  0
   -2.3068   -0.9576    0.0000 C   0  0  0  0  0  0  0  0  0  0  0  0
   -1.6937   -0.4056    0.0000 C   0  0  0  0  0  0  0  0  0  0  0  0
   -0.9091   -0.6605    0.0000 C   0  0  0  0  0  0  0  0  0  0  0  0
  1  2  1  0  0  0  0
  2  3  4  0  0  0  0
  3  4  4  0  0  0  0
  4  5  1  0  0  0  0
  5  6  1  0  0  0  0
  5  7  1  0  0  0  0
  7  8  2  0  0  0  0
  8  9  1  0  0  0  0
  9 10  4  0  0  0  0
 10 11  4  0  0  0  0
 11 12  4  0  0  0  0
 12 13  4  0  0  0  0
 13 14  4  0  0  0  0
  9 14  4  0  0  0  0
 14 15  1  0  0  0  0
 15 16  2  0  0  0  0
 15 17  1  0  0  0  0
  4 18  4  0  0  0  0
 18 19  4  0  0  0  0
  2 19  4  0  0  0  0
 19 20  1  0  0  0  0
 20 21  4  0  0  0  0
 21 22  4  0  0  0  0
 22 23  4  0  0  0  0
 23 24  4  0  0  0  0
 24 25  4  0  0  0  0
 20 25  4  0  0  0  0
M  END
> <IC50(uM)>
0.0088

> <Outcome>
1.0

> <BindingDB ID>
1001121

> <BindingDB MonomerID>
482807

> <BindingDB Ligand Name>
US10919869, No.  12

> <Curation/DataSource>
US Patent

> <Article DOI>
?

> <PMID>
?

> <Patent Number>
US10919869

> <Authors>
Li, H; Xu, Y; Wang, R; Zhao, Z; Song, W; Xu, L

> <Link to Ligand in BindingDB>
http://www.bindingdb.org/bind/chemsearch/marvin/MolStructure.jsp?monomerid=482807

> <Link to Ligand-Target Pair in BindingDB>
http://www.bindingdb.org/jsp/dbsearch/PrimarySearch_ki.jsp?energyterm=kJ/mole&tag=r21&monomerid=482807&enzyme=Dihydroorotate+dehydrogenase&column=ki&startPg=0&Increment=50&submit=Search

> <PubChem CID>
132157898

> <PubChem SID>
443551948

$$$$

  Mrv2115 07222212352D          

 21 23  0  0  0  0            999 V2000
    6.5606    2.1957    0.0000 C   0  0  0  0  0  0  0  0  0  0  0  0
    7.2751    1.7832    0.0000 C   0  0  0  0  0  0  0  0  0  0  0  0
    7.9896    2.1957    0.0000 C   0  0  0  0  0  0  0  0  0  0  0  0
    8.7040    1.7832    0.0000 C   0  0  0  0  0  0  0  0  0  0  0  0
    9.4185    2.1957    0.0000 N   0  0  0  0  0  0  0  0  0  0  0  0
   10.1330    1.7832    0.0000 C   0  0  0  0  0  0  0  0  0  0  0  0
   10.1330    0.9582    0.0000 O   0  0  0  0  0  0  0  0  0  0  0  0
   10.8474    2.1957    0.0000 C   0  0  0  0  0  0  0  0  0  0  0  0
   10.9337    3.0161    0.0000 C   0  0  0  0  0  0  0  0  0  0  0  0
   11.7407    3.1877    0.0000 C   0  0  0  0  0  0  0  0  0  0  0  0
   12.1532    2.4732    0.0000 C   0  0  0  0  0  0  0  0  0  0  0  0
   12.9736    2.3870    0.0000 N   0  0  0  0  0  0  0  0  0  0  0  0
   13.5257    3.0001    0.0000 C   0  0  0  0  0  0  0  0  0  0  0  0
   14.2793    2.6645    0.0000 N   0  0  0  0  0  0  0  0  0  0  0  0
   14.1931    1.8440    0.0000 C   0  0  0  0  0  0  0  0  0  0  0  0
   14.7451    1.2309    0.0000 C   0  0  0  0  0  0  0  0  0  0  0  0
   14.4902    0.4463    0.0000 C   0  0  0  0  0  0  0  0  0  0  0  0
   13.6832    0.2748    0.0000 C   0  0  0  0  0  0  0  0  0  0  0  0
   13.1312    0.8879    0.0000 C   0  0  0  0  0  0  0  0  0  0  0  0
   13.3861    1.6725    0.0000 C   0  0  0  0  0  0  0  0  0  0  0  0
   11.6011    1.8601    0.0000 S   0  0  0  0  0  0  0  0  0  0  0  0
  1  2  1  0  0  0  0
  2  3  1  0  0  0  0
  3  4  1  0  0  0  0
  4  5  1  0  0  0  0
  5  6  1  0  0  0  0
  6  7  2  0  0  0  0
  6  8  1  0  0  0  0
  8  9  4  0  0  0  0
  9 10  4  0  0  0  0
 10 11  4  0  0  0  0
 11 12  1  0  0  0  0
 12 13  4  0  0  0  0
 13 14  4  0  0  0  0
 14 15  4  0  0  0  0
 15 16  4  0  0  0  0
 16 17  4  0  0  0  0
 17 18  4  0  0  0  0
 18 19  4  0  0  0  0
 19 20  4  0  0  0  0
 15 20  4  0  0  0  0
 12 20  4  0  0  0  0
 11 21  4  0  0  0  0
  8 21  4  0  0  0  0
M  END
> <IC50(uM)>
30.0

> <Outcome>
0.0

> <BindingDB ID>
50924662

> <BindingDB MonomerID>
50379144

> <BindingDB Ligand Name>
CHEMBL2012826::US8703811, 29

> <Curation/DataSource>
ChEMBL

> <Article DOI>
10.1021/ml200143c

> <PMID>
24900364

> <Patent Number>
?

> <Authors>
Skerlj, RT; Bastos, CM; Booker, ML; Kramer, ML; Barker, RH; Celatka, CA; Munoz, B; Sidhu, AB; Cortese, JF; Wittlin, S; Papastogiannidis, P; Angulo-Barturen, I; Jimenez-Diaz, MB; Sybertz, E

> <Link to Ligand in BindingDB>
http://www.bindingdb.org/bind/chemsearch/marvin/MolStructure.jsp?monomerid=50379144

> <Link to Ligand-Target Pair in BindingDB>
http://www.bindingdb.org/jsp/dbsearch/PrimarySearch_ki.jsp?energyterm=kJ/mole&tag=r21&monomerid=50379144&enzyme=Dihydroorotate+dehydrogenase&column=ki&startPg=0&Increment=50&submit=Search

> <PubChem CID>
58284833

> <PubChem SID>
160858227

$$$$

  Mrv2115 07222212352D          

 19 21  0  0  0  0            999 V2000
    0.2896   -6.2803    0.0000 C   0  0  0  0  0  0  0  0  0  0  0  0
    0.8416   -5.6672    0.0000 C   0  0  0  0  0  0  0  0  0  0  0  0
    0.5867   -4.8826    0.0000 N   0  0  0  0  0  0  0  0  0  0  0  0
    1.1387   -4.2695    0.0000 C   0  0  0  0  0  0  0  0  0  0  0  0
    1.9457   -4.4410    0.0000 O   0  0  0  0  0  0  0  0  0  0  0  0
    0.8838   -3.4849    0.0000 C   0  0  0  0  0  0  0  0  0  0  0  0
    0.0992   -3.2299    0.0000 C   0  0  0  0  0  0  0  0  0  0  0  0
    0.0992   -2.4049    0.0000 C   0  0  0  0  0  0  0  0  0  0  0  0
    0.8838   -2.1500    0.0000 C   0  0  0  0  0  0  0  0  0  0  0  0
    1.1387   -1.3654    0.0000 N   0  0  0  0  0  0  0  0  0  0  0  0
    0.6538   -0.6979    0.0000 C   0  0  0  0  0  0  0  0  0  0  0  0
    1.1387   -0.0305    0.0000 N   0  0  0  0  0  0  0  0  0  0  0  0
    1.9233   -0.2854    0.0000 C   0  0  0  0  0  0  0  0  0  0  0  0
    2.6378    0.1271    0.0000 C   0  0  0  0  0  0  0  0  0  0  0  0
    3.3523   -0.2854    0.0000 C   0  0  0  0  0  0  0  0  0  0  0  0
    3.3523   -1.1104    0.0000 C   0  0  0  0  0  0  0  0  0  0  0  0
    2.6378   -1.5229    0.0000 C   0  0  0  0  0  0  0  0  0  0  0  0
    1.9233   -1.1104    0.0000 C   0  0  0  0  0  0  0  0  0  0  0  0
    1.3687   -2.8174    0.0000 S   0  0  0  0  0  0  0  0  0  0  0  0
  1  2  1  0  0  0  0
  2  3  1  0  0  0  0
  3  4  1  0  0  0  0
  4  5  2  0  0  0  0
  4  6  1  0  0  0  0
  6  7  4  0  0  0  0
  7  8  4  0  0  0  0
  8  9  4  0  0  0  0
  9 10  1  0  0  0  0
 10 11  4  0  0  0  0
 11 12  4  0  0  0  0
 12 13  4  0  0  0  0
 13 14  4  0  0  0  0
 14 15  4  0  0  0  0
 15 16  4  0  0  0  0
 16 17  4  0  0  0  0
 17 18  4  0  0  0  0
 13 18  4  0  0  0  0
 10 18  4  0  0  0  0
  9 19  4  0  0  0  0
  6 19  4  0  0  0  0
M  END
> <IC50(uM)>
30.0

> <Outcome>
0.0

> <BindingDB ID>
50924658

> <BindingDB MonomerID>
50379140

> <BindingDB Ligand Name>
CHEMBL2012821::US8703811, 25

> <Curation/DataSource>
ChEMBL

> <Article DOI>
10.1021/ml200143c

> <PMID>
24900364

> <Patent Number>
?

> <Authors>
Skerlj, RT; Bastos, CM; Booker, ML; Kramer, ML; Barker, RH; Celatka, CA; Munoz, B; Sidhu, AB; Cortese, JF; Wittlin, S; Papastogiannidis, P; Angulo-Barturen, I; Jimenez-Diaz, MB; Sybertz, E

> <Link to Ligand in BindingDB>
http://www.bindingdb.org/bind/chemsearch/marvin/MolStructure.jsp?monomerid=50379140

> <Link to Ligand-Target Pair in BindingDB>
http://www.bindingdb.org/jsp/dbsearch/PrimarySearch_ki.jsp?energyterm=kJ/mole&tag=r21&monomerid=50379140&enzyme=Dihydroorotate+dehydrogenase&column=ki&startPg=0&Increment=50&submit=Search

> <PubChem CID>
58284845

> <PubChem SID>
160858223

$$$$

  Mrv2115 07222212352D          

 36 39  0  0  0  0            999 V2000
   -3.1034    2.1599    0.0000 C   0  0  0  0  0  0  0  0  0  0  0  0
   -2.6909    1.4455    0.0000 C   0  0  0  0  0  0  0  0  0  0  0  0
   -3.1034    0.7310    0.0000 O   0  0  0  0  0  0  0  0  0  0  0  0
   -2.6909    0.0165    0.0000 C   0  0  0  0  0  0  0  0  0  0  0  0
   -1.8659    0.0165    0.0000 C   0  0  0  0  0  0  0  0  0  0  0  0
   -1.4534   -0.6979    0.0000 C   0  0  0  0  0  0  0  0  0  0  0  0
   -0.6284   -0.6979    0.0000 N   0  0  0  0  0  0  0  0  0  0  0  0
   -0.1435   -1.3654    0.0000 N   0  0  0  0  0  0  0  0  0  0  0  0
    0.6411   -1.1104    0.0000 C   0  0  0  0  0  0  0  0  0  0  0  0
    0.6411   -0.2854    0.0000 N   0  0  0  0  0  0  0  0  0  0  0  0
   -0.1435   -0.0305    0.0000 C   0  0  0  0  0  0  0  0  0  0  0  0
   -0.3984    0.7541    0.0000 O   0  0  0  0  0  0  0  0  0  0  0  0
    1.3556    0.1271    0.0000 C   0  0  0  0  0  0  0  0  0  0  0  0
    2.0701   -0.2854    0.0000 C   0  0  0  0  0  0  0  0  0  0  0  0
    2.0701   -1.1104    0.0000 O   0  0  0  0  0  0  0  0  0  0  0  0
    1.3556   -1.5229    0.0000 C   0  0  0  0  0  0  0  0  0  0  0  0
   -1.8659   -1.4124    0.0000 C   0  0  0  0  0  0  0  0  0  0  0  0
   -1.4534   -2.1269    0.0000 F   0  0  0  0  0  0  0  0  0  0  0  0
   -2.6909   -1.4124    0.0000 C   0  0  0  0  0  0  0  0  0  0  0  0
   -3.1034   -0.6979    0.0000 C   0  0  0  0  0  0  0  0  0  0  0  0
   -3.9284   -0.6979    0.0000 C   0  0  0  0  0  0  0  0  0  0  0  0
   -4.3409    0.0165    0.0000 O   0  0  0  0  0  0  0  0  0  0  0  0
   -4.3409   -1.4124    0.0000 N   0  0  0  0  0  0  0  0  0  0  0  0
   -5.1659   -1.4124    0.0000 C   0  0  0  0  0  0  0  0  0  0  0  0
   -5.5784   -2.1269    0.0000 C   0  0  0  0  0  0  0  0  0  0  0  0
   -5.1659   -2.8414    0.0000 F   0  0  0  0  0  0  0  0  0  0  0  0
   -6.4034   -2.1269    0.0000 C   0  0  0  0  0  0  0  0  0  0  0  0
   -6.8159   -1.4124    0.0000 C   0  0  0  0  0  0  0  0  0  0  0  0
   -7.6409   -1.4124    0.0000 F   0  0  0  0  0  0  0  0  0  0  0  0
   -6.4034   -0.6979    0.0000 C   0  0  0  0  0  0  0  0  0  0  0  0
   -5.5784   -0.6979    0.0000 C   0  0  0  0  0  0  0  0  0  0  0  0
   -5.1659    0.0165    0.0000 Cl  0  0  0  0  0  0  0  0  0  0  0  0
   -1.8659    1.4455    0.0000 C   0  0  0  0  0  0  0  0  0  0  0  0
   -1.8659    0.6205    0.0000 F   0  0  0  0  0  0  0  0  0  0  0  0
   -1.8659    2.2705    0.0000 F   0  0  0  0  0  0  0  0  0  0  0  0
   -1.0409    1.4455    0.0000 F   0  0  0  0  0  0  0  0  0  0  0  0
  1  2  1  0  0  0  0
  2  3  1  0  0  0  0
  3  4  1  0  0  0  0
  4  5  4  0  0  0  0
  5  6  4  0  0  0  0
  6  7  1  0  0  0  0
  7  8  4  0  0  0  0
  8  9  4  0  0  0  0
  9 10  4  0  0  0  0
 10 11  4  0  0  0  0
  7 11  4  0  0  0  0
 11 12  2  0  0  0  0
 10 13  1  0  0  0  0
 13 14  1  0  0  0  0
 14 15  1  0  0  0  0
 15 16  1  0  0  0  0
  9 16  1  0  0  0  0
  6 17  4  0  0  0  0
 17 18  1  0  0  0  0
 17 19  4  0  0  0  0
 19 20  4  0  0  0  0
  4 20  4  0  0  0  0
 20 21  1  0  0  0  0
 21 22  2  0  0  0  0
 21 23  1  0  0  0  0
 23 24  1  0  0  0  0
 24 25  4  0  0  0  0
 25 26  1  0  0  0  0
 25 27  4  0  0  0  0
 27 28  4  0  0  0  0
 28 29  1  0  0  0  0
 28 30  4  0  0  0  0
 30 31  4  0  0  0  0
 24 31  4  0  0  0  0
 31 32  1  0  0  0  0
  2 33  1  0  0  0  0
 33 34  1  0  0  0  0
 33 35  1  0  0  0  0
 33 36  1  0  0  0  0
M  END
> <IC50(uM)>
0.04

> <Outcome>
1.0

> <BindingDB ID>
1020582

> <BindingDB MonomerID>
490521

> <BindingDB Ligand Name>
N-(2-chloro-4,6-difluorophenyl)-5-fluoro-4-(3-oxo-5,6-dihydro-3H-[1,2,4]triazolo[3,4-c]-[1,4]oxazin-2(8H)-yl)-2-{[(2S)-1,1,1-trifluoropropan-2-yl]oxy}benzamide::US10968216, Example 189

> <Curation/DataSource>
US Patent

> <Article DOI>
?

> <PMID>
?

> <Patent Number>
US10968216

> <Authors>
Gradl, SN; Nguyen, D; Eis, K; Gunther, J; Stellfeld, T; Janzer, A; Christian, S; Mueller, T; Sheikh, SE; Zhou, HJ; Zhao, C; Sykes, DB; Ferrara, SJ; Liu, K; Herbert, SA; Merz, C; Niehues, M; Nising, CF; Schafer, M; Zimmermann, K; Knablein, J; Thede, K; Faupel, T

> <Link to Ligand in BindingDB>
http://www.bindingdb.org/bind/chemsearch/marvin/MolStructure.jsp?monomerid=490521

> <Link to Ligand-Target Pair in BindingDB>
http://www.bindingdb.org/jsp/dbsearch/PrimarySearch_ki.jsp?energyterm=kJ/mole&tag=r21&monomerid=490521&enzyme=Dihydroorotate+dehydrogenase&column=ki&startPg=0&Increment=50&submit=Search

> <PubChem CID>
134474130

> <PubChem SID>
447117247

$$$$

  Mrv2115 07222212352D          

 38 41  0  0  0  0            999 V2000
   -5.1659   -2.8414    0.0000 C   0  0  0  0  0  0  0  0  0  0  0  0
   -5.5784   -2.1269    0.0000 C   0  0  0  0  0  0  0  0  0  0  0  0
   -5.1659   -1.4124    0.0000 C   0  0  0  0  0  0  0  0  0  0  0  0
   -4.3409   -1.4124    0.0000 N   0  0  0  0  0  0  0  0  0  0  0  0
   -3.9284   -0.6979    0.0000 C   0  0  0  0  0  0  0  0  0  0  0  0
   -4.3409    0.0165    0.0000 O   0  0  0  0  0  0  0  0  0  0  0  0
   -3.1034   -0.6979    0.0000 C   0  0  0  0  0  0  0  0  0  0  0  0
   -2.6909    0.0165    0.0000 C   0  0  0  0  0  0  0  0  0  0  0  0
   -1.8659    0.0165    0.0000 C   0  0  0  0  0  0  0  0  0  0  0  0
   -1.4534    0.7310    0.0000 F   0  0  0  0  0  0  0  0  0  0  0  0
   -1.4534   -0.6979    0.0000 C   0  0  0  0  0  0  0  0  0  0  0  0
   -0.6284   -0.6979    0.0000 N   0  0  0  0  0  0  0  0  0  0  0  0
   -0.1435   -1.3654    0.0000 N   0  0  0  0  0  0  0  0  0  0  0  0
    0.6411   -1.1104    0.0000 C   0  0  0  0  0  0  0  0  0  0  0  0
    0.6411   -0.2854    0.0000 N   0  0  0  0  0  0  0  0  0  0  0  0
   -0.1435   -0.0305    0.0000 C   0  0  0  0  0  0  0  0  0  0  0  0
   -0.3984    0.7541    0.0000 O   0  0  0  0  0  0  0  0  0  0  0  0
    1.3556    0.1271    0.0000 C   0  0  0  0  0  0  0  0  0  0  0  0
    2.0701   -0.2854    0.0000 C   0  0  0  0  0  0  0  0  0  0  0  0
    2.0701   -1.1104    0.0000 C   0  0  0  0  0  0  0  0  0  0  0  0
    1.3556   -1.5229    0.0000 C   0  0  0  0  0  0  0  0  0  0  0  0
   -1.8659   -1.4124    0.0000 C   0  0  0  0  0  0  0  0  0  0  0  0
   -2.6909   -1.4124    0.0000 C   0  0  0  0  0  0  0  0  0  0  0  0
   -3.1034   -2.1269    0.0000 O   0  0  0  0  0  0  0  0  0  0  0  0
   -2.6909   -2.8414    0.0000 C   0  0  0  0  0  0  0  0  0  0  0  0
   -1.8659   -2.8414    0.0000 C   0  0  0  0  0  0  0  0  0  0  0  0
   -3.1034   -3.5558    0.0000 C   0  0  0  0  0  0  0  0  0  0  0  0
   -3.8179   -3.1433    0.0000 F   0  0  0  0  0  0  0  0  0  0  0  0
   -2.3890   -3.9683    0.0000 F   0  0  0  0  0  0  0  0  0  0  0  0
   -3.5159   -4.2703    0.0000 F   0  0  0  0  0  0  0  0  0  0  0  0
   -5.5784   -0.6979    0.0000 C   0  0  0  0  0  0  0  0  0  0  0  0
   -6.4034   -0.6979    0.0000 C   0  0  0  0  0  0  0  0  0  0  0  0
   -6.8159   -1.4124    0.0000 C   0  0  0  0  0  0  0  0  0  0  0  0
   -6.4034   -2.1269    0.0000 C   0  0  0  0  0  0  0  0  0  0  0  0
   -6.8159   -2.8414    0.0000 C   0  0  0  0  0  0  0  0  0  0  0  0
   -7.2284   -3.5558    0.0000 F   0  0  0  0  0  0  0  0  0  0  0  0
   -7.5304   -2.4289    0.0000 F   0  0  0  0  0  0  0  0  0  0  0  0
   -6.1015   -3.2539    0.0000 F   0  0  0  0  0  0  0  0  0  0  0  0
  1  2  1  0  0  0  0
  2  3  4  0  0  0  0
  3  4  1  0  0  0  0
  4  5  1  0  0  0  0
  5  6  2  0  0  0  0
  5  7  1  0  0  0  0
  7  8  4  0  0  0  0
  8  9  4  0  0  0  0
  9 10  1  0  0  0  0
  9 11  4  0  0  0  0
 11 12  1  0  0  0  0
 12 13  4  0  0  0  0
 13 14  4  0  0  0  0
 14 15  4  0  0  0  0
 15 16  4  0  0  0  0
 12 16  4  0  0  0  0
 16 17  2  0  0  0  0
 15 18  1  0  0  0  0
 18 19  1  0  0  0  0
 19 20  1  0  0  0  0
 20 21  1  0  0  0  0
 14 21  1  0  0  0  0
 11 22  4  0  0  0  0
 22 23  4  0  0  0  0
  7 23  4  0  0  0  0
 23 24  1  0  0  0  0
 24 25  1  0  0  0  0
 25 26  1  0  0  0  0
 25 27  1  0  0  0  0
 27 28  1  0  0  0  0
 27 29  1  0  0  0  0
 27 30  1  0  0  0  0
  3 31  4  0  0  0  0
 31 32  4  0  0  0  0
 32 33  4  0  0  0  0
 33 34  4  0  0  0  0
  2 34  4  0  0  0  0
 34 35  1  0  0  0  0
 35 36  1  0  0  0  0
 35 37  1  0  0  0  0
 35 38  1  0  0  0  0
M  END
> <IC50(uM)>
0.05

> <Outcome>
1.0

> <BindingDB ID>
1020418

> <BindingDB MonomerID>
490369

> <BindingDB Ligand Name>
5-fluoro-N-[2-methyl-3-(trifluoromethyl)phenyl]-4-(3-oxo-5,6,7,8-tetrahydro[1,2,4]triazolo[4,3-a]pyridin-2(3H)-yl)-2-{[(2S)-1,1,1-trifluoropropan-2-yl]oxy}benzamide::US10968216, Example 37

> <Curation/DataSource>
US Patent

> <Article DOI>
?

> <PMID>
?

> <Patent Number>
US10968216

> <Authors>
Gradl, SN; Nguyen, D; Eis, K; Gunther, J; Stellfeld, T; Janzer, A; Christian, S; Mueller, T; Sheikh, SE; Zhou, HJ; Zhao, C; Sykes, DB; Ferrara, SJ; Liu, K; Herbert, SA; Merz, C; Niehues, M; Nising, CF; Schafer, M; Zimmermann, K; Knablein, J; Thede, K; Faupel, T

> <Link to Ligand in BindingDB>
http://www.bindingdb.org/bind/chemsearch/marvin/MolStructure.jsp?monomerid=490369

> <Link to Ligand-Target Pair in BindingDB>
http://www.bindingdb.org/jsp/dbsearch/PrimarySearch_ki.jsp?energyterm=kJ/mole&tag=r21&monomerid=490369&enzyme=Dihydroorotate+dehydrogenase&column=ki&startPg=0&Increment=50&submit=Search

> <PubChem CID>
134473881

> <PubChem SID>
447117096

$$$$

  Mrv2115 07222212352D          

 25 26  0  0  0  0            999 V2000
    2.5878   -5.8204    0.0000 C   0  0  0  0  0  0  0  0  0  0  0  0
    2.8579   -6.6000    0.0000 C   0  0  0  0  0  0  0  0  0  0  0  0
    3.6680   -6.7559    0.0000 O   0  0  0  0  0  0  0  0  0  0  0  0
    3.9381   -7.5355    0.0000 C   0  0  0  0  0  0  0  0  0  0  0  0
    3.3980   -8.1591    0.0000 O   0  0  0  0  0  0  0  0  0  0  0  0
    4.7482   -7.6914    0.0000 C   0  0  0  0  0  0  0  0  0  0  0  0
    5.0182   -8.4709    0.0000 C   0  0  0  0  0  0  0  0  0  0  0  0
    5.8284   -8.6268    0.0000 N   0  0  0  0  0  0  0  0  0  0  0  0
    6.0984   -9.4064    0.0000 C   0  0  0  0  0  0  0  0  0  0  0  0
    6.9086   -9.5623    0.0000 C   0  0  0  0  0  0  0  0  0  0  0  0
    7.1786  -10.3418    0.0000 C   0  0  0  0  0  0  0  0  0  0  0  0
    6.6385  -10.9655    0.0000 C   0  0  0  0  0  0  0  0  0  0  0  0
    6.9086  -11.7450    0.0000 C   0  0  0  0  0  0  0  0  0  0  0  0
    7.7187  -11.9010    0.0000 C   0  0  0  0  0  0  0  0  0  0  0  0
    7.9887  -12.6805    0.0000 C   0  0  0  0  0  0  0  0  0  0  0  0
    7.4486  -13.3041    0.0000 C   0  0  0  0  0  0  0  0  0  0  0  0
    6.6385  -13.1482    0.0000 C   0  0  0  0  0  0  0  0  0  0  0  0
    6.3685  -12.3687    0.0000 C   0  0  0  0  0  0  0  0  0  0  0  0
    5.8284  -10.8096    0.0000 C   0  0  0  0  0  0  0  0  0  0  0  0
    5.5583  -10.0300    0.0000 C   0  0  0  0  0  0  0  0  0  0  0  0
    5.2883   -7.0677    0.0000 C   0  0  0  0  0  0  0  0  0  0  0  0
    5.0182   -6.2882    0.0000 O   0  0  0  0  0  0  0  0  0  0  0  0
    6.0984   -7.2236    0.0000 O   0  0  0  0  0  0  0  0  0  0  0  0
    6.6385   -6.6000    0.0000 C   0  0  0  0  0  0  0  0  0  0  0  0
    7.4486   -6.7559    0.0000 C   0  0  0  0  0  0  0  0  0  0  0  0
  1  2  1  0  0  0  0
  2  3  1  0  0  0  0
  3  4  1  0  0  0  0
  4  5  2  0  0  0  0
  4  6  1  0  0  0  0
  7  6  1  4  0  0  0
  7  8  2  0  0  0  0
  8  9  1  0  0  0  0
  9 10  4  0  0  0  0
 10 11  4  0  0  0  0
 11 12  4  0  0  0  0
 12 13  1  0  0  0  0
 13 14  4  0  0  0  0
 14 15  4  0  0  0  0
 15 16  4  0  0  0  0
 16 17  4  0  0  0  0
 17 18  4  0  0  0  0
 13 18  4  0  0  0  0
 12 19  4  0  0  0  0
 19 20  4  0  0  0  0
  9 20  4  0  0  0  0
  6 21  1  0  0  0  0
 21 22  2  0  0  0  0
 21 23  1  0  0  0  0
 23 24  1  0  0  0  0
 24 25  1  0  0  0  0
M  END
> <IC50(uM)>
500.0

> <Outcome>
0.0

> <BindingDB ID>
26835

> <BindingDB MonomerID>
14707

> <BindingDB Ligand Name>
1,3-diethyl 2-{[(4-phenylphenyl)amino]methylidene}propanedioate::Diethyl 2-((biphenyl-4-ylamino)methylene)malonate::biphenyl compound 12

> <Curation/DataSource>
Curated from the literature by BindingDB

> <Article DOI>
10.1021/jm060687j

> <PMID>
17228860

> <Patent Number>
?

> <Authors>
Heikkila, T; Ramsey, C; Davies, M; Galtier, C; Stead, AM; Johnson, AP; Fishwick, CW; Boa, AN; McConkey, GA

> <Link to Ligand in BindingDB>
http://www.bindingdb.org/bind/chemsearch/marvin/MolStructure.jsp?monomerid=14707

> <Link to Ligand-Target Pair in BindingDB>
http://www.bindingdb.org/jsp/dbsearch/PrimarySearch_ki.jsp?energyterm=kJ/mole&tag=r21&monomerid=14707&enzyme=Dihydroorotate+dehydrogenase&column=ki&startPg=0&Increment=50&submit=Search

> <PubChem CID>
54396838

> <PubChem SID>
46515037

$$$$

  Mrv2115 07222212352D          

 40 43  0  0  0  0            999 V2000
   -3.1034    2.1599    0.0000 C   0  0  0  0  0  0  0  0  0  0  0  0
   -2.6909    1.4455    0.0000 C   0  0  0  0  0  0  0  0  0  0  0  0
   -1.8659    1.4455    0.0000 C   0  0  0  0  0  0  0  0  0  0  0  0
   -1.4534    2.1599    0.0000 N   0  0  0  0  0  0  0  0  0  0  0  0
   -0.6284    2.1599    0.0000 C   0  0  0  0  0  0  0  0  0  0  0  0
   -0.2159    1.4455    0.0000 O   0  0  0  0  0  0  0  0  0  0  0  0
   -0.2159    2.8744    0.0000 O   0  0  0  0  0  0  0  0  0  0  0  0
    0.6091    2.8744    0.0000 C   0  0  0  0  0  0  0  0  0  0  0  0
    1.4341    2.8744    0.0000 C   0  0  0  0  0  0  0  0  0  0  0  0
    0.6091    3.6994    0.0000 C   0  0  0  0  0  0  0  0  0  0  0  0
    0.6091    2.0494    0.0000 C   0  0  0  0  0  0  0  0  0  0  0  0
   -3.1034    0.7310    0.0000 O   0  0  0  0  0  0  0  0  0  0  0  0
   -2.6909    0.0165    0.0000 C   0  0  0  0  0  0  0  0  0  0  0  0
   -1.8659    0.0165    0.0000 C   0  0  0  0  0  0  0  0  0  0  0  0
   -1.4534   -0.6979    0.0000 C   0  0  0  0  0  0  0  0  0  0  0  0
   -0.6284   -0.6979    0.0000 N   0  0  0  0  0  0  0  0  0  0  0  0
   -0.1435   -1.3654    0.0000 N   0  0  0  0  0  0  0  0  0  0  0  0
    0.6411   -1.1104    0.0000 C   0  0  0  0  0  0  0  0  0  0  0  0
    0.6411   -0.2854    0.0000 N   0  0  0  0  0  0  0  0  0  0  0  0
   -0.1435   -0.0305    0.0000 C   0  0  0  0  0  0  0  0  0  0  0  0
   -0.3984    0.7541    0.0000 O   0  0  0  0  0  0  0  0  0  0  0  0
    1.3556    0.1271    0.0000 C   0  0  0  0  0  0  0  0  0  0  0  0
    2.0701   -0.2854    0.0000 C   0  0  0  0  0  0  0  0  0  0  0  0
    2.0701   -1.1104    0.0000 C   0  0  0  0  0  0  0  0  0  0  0  0
    1.3556   -1.5229    0.0000 C   0  0  0  0  0  0  0  0  0  0  0  0
   -1.8659   -1.4124    0.0000 C   0  0  0  0  0  0  0  0  0  0  0  0
   -1.4534   -2.1269    0.0000 F   0  0  0  0  0  0  0  0  0  0  0  0
   -2.6909   -1.4124    0.0000 C   0  0  0  0  0  0  0  0  0  0  0  0
   -3.1034   -0.6979    0.0000 C   0  0  0  0  0  0  0  0  0  0  0  0
   -3.9284   -0.6979    0.0000 C   0  0  0  0  0  0  0  0  0  0  0  0
   -4.3409    0.0165    0.0000 O   0  0  0  0  0  0  0  0  0  0  0  0
   -4.3409   -1.4124    0.0000 N   0  0  0  0  0  0  0  0  0  0  0  0
   -5.1659   -1.4124    0.0000 C   0  0  0  0  0  0  0  0  0  0  0  0
   -5.5784   -0.6979    0.0000 C   0  0  0  0  0  0  0  0  0  0  0  0
   -5.1659    0.0165    0.0000 F   0  0  0  0  0  0  0  0  0  0  0  0
   -6.4034   -0.6979    0.0000 C   0  0  0  0  0  0  0  0  0  0  0  0
   -6.8159   -1.4124    0.0000 C   0  0  0  0  0  0  0  0  0  0  0  0
   -6.4034   -2.1269    0.0000 C   0  0  0  0  0  0  0  0  0  0  0  0
   -5.5784   -2.1269    0.0000 C   0  0  0  0  0  0  0  0  0  0  0  0
   -5.1659   -2.8414    0.0000 Cl  0  0  0  0  0  0  0  0  0  0  0  0
  1  2  1  0  0  0  0
  2  3  1  0  0  0  0
  3  4  1  0  0  0  0
  4  5  1  0  0  0  0
  5  6  2  0  0  0  0
  5  7  1  0  0  0  0
  7  8  1  0  0  0  0
  8  9  1  0  0  0  0
  8 10  1  0  0  0  0
  8 11  1  0  0  0  0
  2 12  1  0  0  0  0
 12 13  1  0  0  0  0
 13 14  4  0  0  0  0
 14 15  4  0  0  0  0
 15 16  1  0  0  0  0
 16 17  4  0  0  0  0
 17 18  4  0  0  0  0
 18 19  4  0  0  0  0
 19 20  4  0  0  0  0
 16 20  4  0  0  0  0
 20 21  2  0  0  0  0
 19 22  1  0  0  0  0
 22 23  1  0  0  0  0
 23 24  1  0  0  0  0
 24 25  1  0  0  0  0
 18 25  1  0  0  0  0
 15 26  4  0  0  0  0
 26 27  1  0  0  0  0
 26 28  4  0  0  0  0
 28 29  4  0  0  0  0
 13 29  4  0  0  0  0
 29 30  1  0  0  0  0
 30 31  2  0  0  0  0
 30 32  1  0  0  0  0
 32 33  1  0  0  0  0
 33 34  4  0  0  0  0
 34 35  1  0  0  0  0
 34 36  4  0  0  0  0
 36 37  4  0  0  0  0
 37 38  4  0  0  0  0
 38 39  4  0  0  0  0
 33 39  4  0  0  0  0
 39 40  1  0  0  0  0
M  END
> <IC50(uM)>
0.68

> <Outcome>
1.0

> <BindingDB ID>
1020703

> <BindingDB MonomerID>
490629

> <BindingDB Ligand Name>
US10968216, Example 297::rac-tert-butyl [2-{2-[(2-chloro-6-fluorophenyl)carbamoyl]-4-fluoro-5-(3-oxo-5,6,7,8-tetrahydro-[1,2,4]triazolo[4,3-a]pyridin-2(3H)-yl) phenoxy}propyl]carbamate

> <Curation/DataSource>
US Patent

> <Article DOI>
?

> <PMID>
?

> <Patent Number>
US10968216

> <Authors>
Gradl, SN; Nguyen, D; Eis, K; Gunther, J; Stellfeld, T; Janzer, A; Christian, S; Mueller, T; Sheikh, SE; Zhou, HJ; Zhao, C; Sykes, DB; Ferrara, SJ; Liu, K; Herbert, SA; Merz, C; Niehues, M; Nising, CF; Schafer, M; Zimmermann, K; Knablein, J; Thede, K; Faupel, T

> <Link to Ligand in BindingDB>
http://www.bindingdb.org/bind/chemsearch/marvin/MolStructure.jsp?monomerid=490629

> <Link to Ligand-Target Pair in BindingDB>
http://www.bindingdb.org/jsp/dbsearch/PrimarySearch_ki.jsp?energyterm=kJ/mole&tag=r21&monomerid=490629&enzyme=Dihydroorotate+dehydrogenase&column=ki&startPg=0&Increment=50&submit=Search

> <PubChem CID>
134474181

> <PubChem SID>
447117355

$$$$

  Mrv2115 07222212352D          

 25 27  0  0  0  0            999 V2000
    2.1434   -2.8875    0.0000 O   0  0  0  0  0  0  0  0  0  0  0  0
    1.4289   -2.4750    0.0000 C   0  0  0  0  0  0  0  0  0  0  0  0
    0.7145   -2.8875    0.0000 O   0  0  0  0  0  0  0  0  0  0  0  0
    1.4289   -1.6500    0.0000 C   0  0  0  0  0  0  0  0  0  0  0  0
    0.7145   -1.2375    0.0000 C   0  0  0  0  0  0  0  0  0  0  0  0
    0.0000   -1.6500    0.0000 O   0  0  0  0  0  0  0  0  0  0  0  0
    0.7145   -0.4125    0.0000 C   0  0  0  0  0  0  0  0  0  0  0  0
    0.0000    0.0000    0.0000 C   0  0  0  0  0  0  0  0  0  0  0  0
   -0.7145   -0.4125    0.0000 C   0  0  0  0  0  0  0  0  0  0  0  0
   -1.4289    0.0000    0.0000 C   0  0  0  0  0  0  0  0  0  0  0  0
   -1.4289    0.8250    0.0000 C   0  0  0  0  0  0  0  0  0  0  0  0
   -2.1434    1.2375    0.0000 Cl  0  0  0  0  0  0  0  0  0  0  0  0
   -0.7145    1.2375    0.0000 C   0  0  0  0  0  0  0  0  0  0  0  0
    0.0000    0.8250    0.0000 C   0  0  0  0  0  0  0  0  0  0  0  0
    1.4289    0.0000    0.0000 N   0  0  0  0  0  0  0  0  0  0  0  0
    2.1434   -0.4125    0.0000 C   0  0  0  0  0  0  0  0  0  0  0  0
    2.8579    0.0000    0.0000 C   0  0  0  0  0  0  0  0  0  0  0  0
    3.5724   -0.4125    0.0000 C   0  0  0  0  0  0  0  0  0  0  0  0
    3.5724   -1.2375    0.0000 C   0  0  0  0  0  0  0  0  0  0  0  0
    4.2868   -1.6500    0.0000 C   0  0  0  0  0  0  0  0  0  0  0  0
    5.0013   -2.0625    0.0000 F   0  0  0  0  0  0  0  0  0  0  0  0
    3.8743   -2.3645    0.0000 F   0  0  0  0  0  0  0  0  0  0  0  0
    4.6993   -0.9355    0.0000 F   0  0  0  0  0  0  0  0  0  0  0  0
    2.8579   -1.6500    0.0000 C   0  0  0  0  0  0  0  0  0  0  0  0
    2.1434   -1.2375    0.0000 C   0  0  0  0  0  0  0  0  0  0  0  0
  1  2  2  0  0  0  0
  2  3  1  0  0  0  0
  2  4  1  0  0  0  0
  4  5  4  0  0  0  0
  5  6  1  0  0  0  0
  5  7  4  0  0  0  0
  7  8  1  0  0  0  0
  8  9  4  0  0  0  0
  9 10  4  0  0  0  0
 10 11  4  0  0  0  0
 11 12  1  0  0  0  0
 11 13  4  0  0  0  0
 13 14  4  0  0  0  0
  8 14  4  0  0  0  0
  7 15  4  0  0  0  0
 15 16  4  0  0  0  0
 16 17  4  0  0  0  0
 17 18  4  0  0  0  0
 18 19  4  0  0  0  0
 19 20  1  0  0  0  0
 20 21  1  0  0  0  0
 20 22  1  0  0  0  0
 20 23  1  0  0  0  0
 19 24  4  0  0  0  0
 24 25  4  0  0  0  0
  4 25  4  0  0  0  0
 16 25  4  0  0  0  0
M  END
> <IC50(uM)>
0.27

> <Outcome>
1.0

> <BindingDB ID>
50841919

> <BindingDB MonomerID>
50201913

> <BindingDB Ligand Name>
2-(4-chlorophenyl)-3-hydroxy-6-(trifluoromethyl)quinoline-4-carboxylic acid::CHEMBL386700

> <Curation/DataSource>
ChEMBL

> <Article DOI>
10.1021/jm0602256

> <PMID>
17201408

> <Patent Number>
?

> <Authors>
Kaila, N; Janz, K; DeBernardo, S; Bedard, PW; Camphausen, RT; Tam, S; Tsao, DH; Keith, JC; Nickerson-Nutter, C; Shilling, A; Young-Sciame, R; Wang, Q

> <Link to Ligand in BindingDB>
http://www.bindingdb.org/bind/chemsearch/marvin/MolStructure.jsp?monomerid=50201913

> <Link to Ligand-Target Pair in BindingDB>
http://www.bindingdb.org/jsp/dbsearch/PrimarySearch_ki.jsp?energyterm=kJ/mole&tag=r21&monomerid=50201913&enzyme=Dihydroorotate+dehydrogenase&column=ki&startPg=0&Increment=50&submit=Search

> <PubChem CID>
16100005

> <PubChem SID>
104081564

$$$$

  Mrv2115 07222212352D          

 16 17  0  0  0  0            999 V2000
    2.0367   -0.4741    0.0000 C   0  0  0  0  0  0  0  0  0  0  0  0
    2.0367   -1.2991    0.0000 C   0  0  0  0  0  0  0  0  0  0  0  0
    2.7041   -1.7840    0.0000 N   0  0  0  0  0  0  0  0  0  0  0  0
    2.4492   -2.5687    0.0000 N   0  0  0  0  0  0  0  0  0  0  0  0
    1.6242   -2.5687    0.0000 C   0  0  0  0  0  0  0  0  0  0  0  0
    1.1393   -3.2361    0.0000 N   0  0  0  0  0  0  0  0  0  0  0  0
    0.3188   -3.1499    0.0000 C   0  0  0  0  0  0  0  0  0  0  0  0
   -0.1661   -3.8173    0.0000 C   0  0  0  0  0  0  0  0  0  0  0  0
   -0.9866   -3.7311    0.0000 C   0  0  0  0  0  0  0  0  0  0  0  0
   -1.3222   -2.9774    0.0000 C   0  0  0  0  0  0  0  0  0  0  0  0
   -2.1426   -2.8911    0.0000 N   0  0  0  0  0  0  0  0  0  0  0  0
   -0.8372   -2.3099    0.0000 C   0  0  0  0  0  0  0  0  0  0  0  0
   -0.0168   -2.3962    0.0000 C   0  0  0  0  0  0  0  0  0  0  0  0
    1.3693   -1.7840    0.0000 C   0  0  0  0  0  0  0  0  0  0  0  0
    0.5846   -1.5291    0.0000 C   0  0  0  0  0  0  0  0  0  0  0  0
   -0.2000   -1.2742    0.0000 N   0  0  0  0  0  0  0  0  0  0  0  0
  1  2  1  0  0  0  0
  2  3  4  0  0  0  0
  3  4  4  0  0  0  0
  4  5  4  0  0  0  0
  5  6  1  0  0  0  0
  6  7  1  0  0  0  0
  7  8  4  0  0  0  0
  8  9  4  0  0  0  0
  9 10  4  0  0  0  0
 10 11  1  0  0  0  0
 10 12  4  0  0  0  0
 12 13  4  0  0  0  0
  7 13  4  0  0  0  0
  5 14  4  0  0  0  0
  2 14  4  0  0  0  0
 14 15  1  0  0  0  0
 15 16  3  0  0  0  0
M  STY  1   1 DAT
M  SAL   1  1   4
M  SDT   1 MRV_IMPLICIT_H                                        
M  SDD   1     0.5304   -0.4125    DR    ALL  0       0  
M  SED   1 IMPL_H1
M  END
> <IC50(uM)>
50.0

> <Outcome>
0.0

> <BindingDB ID>
50786769

> <BindingDB MonomerID>
50066584

> <BindingDB Ligand Name>
3-(4-Amino-phenylamino)-5-methyl-1H-pyrazole-4-carbonitrile::CHEMBL121898

> <Curation/DataSource>
ChEMBL

> <Article DOI>
10.1021/jm981028c

> <PMID>
9719606

> <Patent Number>
?

> <Authors>
Papageorgiou, C; Albert, R; Floersheim, P; Lemaire, M; Bitch, F; Weber, HP; Andersen, E; Hungerford, V; Schreier, MH

> <Link to Ligand in BindingDB>
http://www.bindingdb.org/bind/chemsearch/marvin/MolStructure.jsp?monomerid=50066584

> <Link to Ligand-Target Pair in BindingDB>
http://www.bindingdb.org/jsp/dbsearch/PrimarySearch_ki.jsp?energyterm=kJ/mole&tag=r21&monomerid=50066584&enzyme=Dihydroorotate+dehydrogenase&column=ki&startPg=0&Increment=50&submit=Search

> <PubChem CID>
10703799

> <PubChem SID>
103961204

$$$$

  Mrv2115 07222212352D          

 23 24  0  0  0  0            999 V2000
    2.1434   -0.4125    0.0000 C   0  0  0  0  0  0  0  0  0  0  0  0
    2.1434   -1.2375    0.0000 O   0  0  0  0  0  0  0  0  0  0  0  0
    1.4289   -1.6500    0.0000 C   0  0  0  0  0  0  0  0  0  0  0  0
    0.7145   -1.2375    0.0000 O   0  0  0  0  0  0  0  0  0  0  0  0
    1.4289   -2.4750    0.0000 C   0  0  0  0  0  0  0  0  0  0  0  0
    2.1434   -2.8875    0.0000 C   0  0  0  0  0  0  0  0  0  0  0  0
    2.1434   -3.7125    0.0000 C   0  0  0  0  0  0  0  0  0  0  0  0
    1.4289   -4.1250    0.0000 C   0  0  0  0  0  0  0  0  0  0  0  0
    0.7145   -3.7125    0.0000 C   0  0  0  0  0  0  0  0  0  0  0  0
    0.7145   -2.8875    0.0000 C   0  0  0  0  0  0  0  0  0  0  0  0
    0.0000   -2.4750    0.0000 C   0  0  0  0  0  0  0  0  0  0  0  0
   -0.7145   -2.8875    0.0000 C   0  0  0  0  0  0  0  0  0  0  0  0
   -1.4289   -2.4750    0.0000 C   0  0  0  0  0  0  0  0  0  0  0  0
   -2.1434   -2.8875    0.0000 C   0  0  0  0  0  0  0  0  0  0  0  0
   -2.1434   -3.7125    0.0000 C   0  0  0  0  0  0  0  0  0  0  0  0
   -2.8579   -4.1250    0.0000 O   0  0  0  0  0  0  0  0  0  0  0  0
   -1.4289   -4.1250    0.0000 O   0  0  0  0  0  0  0  0  0  0  0  0
   -2.8579   -2.4750    0.0000 N   0  0  0  0  0  0  0  0  0  0  0  0
   -2.8579   -1.6500    0.0000 C   0  0  0  0  0  0  0  0  0  0  0  0
   -3.5724   -1.2375    0.0000 O   0  0  0  0  0  0  0  0  0  0  0  0
   -2.1434   -1.2375    0.0000 N   0  0  0  0  0  0  0  0  0  0  0  0
   -1.4289   -1.6500    0.0000 C   0  0  0  0  0  0  0  0  0  0  0  0
   -0.7145   -1.2375    0.0000 O   0  0  0  0  0  0  0  0  0  0  0  0
  1  2  1  0  0  0  0
  2  3  1  0  0  0  0
  3  4  2  0  0  0  0
  3  5  1  0  0  0  0
  5  6  4  0  0  0  0
  6  7  4  0  0  0  0
  7  8  4  0  0  0  0
  8  9  4  0  0  0  0
  9 10  4  0  0  0  0
  5 10  4  0  0  0  0
 10 11  1  0  0  0  0
 11 12  1  0  0  0  0
 12 13  1  0  0  0  0
 13 14  4  0  0  0  0
 14 15  1  0  0  0  0
 15 16  2  0  0  0  0
 15 17  1  0  0  0  0
 14 18  4  0  0  0  0
 18 19  4  0  0  0  0
 19 20  2  0  0  0  0
 19 21  4  0  0  0  0
 21 22  4  0  0  0  0
 13 22  4  0  0  0  0
 22 23  2  0  0  0  0
M  STY  2   1 DAT   2 DAT
M  SAL   1  1  18
M  SDT   1 MRV_IMPLICIT_H                                        
M  SDD   1     0.5304   -0.4125    DR    ALL  0       0  
M  SED   1 IMPL_H1
M  SAL   2  1  21
M  SDT   2 MRV_IMPLICIT_H                                        
M  SDD   2     0.6482   -0.4125    DR    ALL  0       0  
M  SED   2 IMPL_H1
M  END
> <IC50(uM)>
1.0

> <Outcome>
1.0

> <BindingDB ID>
50555338

> <BindingDB MonomerID>
50211963

> <BindingDB Ligand Name>
CHEMBL3926494

> <Curation/DataSource>
ChEMBL

> <Article DOI>
10.1016/j.bmc.2017.01.009

> <PMID>
28118956

> <Patent Number>
?

> <Authors>
Inaoka, DK; Iida, M; Hashimoto, S; Tabuchi, T; Kuranaga, T; Balogun, EO; Honma, T; Tanaka, A; Harada, S; Nara, T; Kita, K; Inoue, M

> <Link to Ligand in BindingDB>
http://www.bindingdb.org/bind/chemsearch/marvin/MolStructure.jsp?monomerid=50211963

> <Link to Ligand-Target Pair in BindingDB>
http://www.bindingdb.org/jsp/dbsearch/PrimarySearch_ki.jsp?energyterm=kJ/mole&tag=r21&monomerid=50211963&enzyme=Dihydroorotate+dehydrogenase&column=ki&startPg=0&Increment=50&submit=Search

> <PubChem CID>
134141210

> <PubChem SID>
375983083

$$$$

  Mrv2115 07222212352D          

 25 28  0  0  0  0            999 V2000
    3.9934    2.4750    0.0000 O   0  0  0  0  0  0  0  0  0  0  0  0
    3.2789    2.0625    0.0000 C   0  0  0  0  0  0  0  0  0  0  0  0
    2.5645    2.4750    0.0000 O   0  0  0  0  0  0  0  0  0  0  0  0
    3.2789    1.2375    0.0000 C   0  0  0  0  0  0  0  0  0  0  0  0
    3.9934    0.8250    0.0000 C   0  0  0  0  0  0  0  0  0  0  0  0
    3.9934    0.0000    0.0000 C   0  0  0  0  0  0  0  0  0  0  0  0
    3.2789   -0.4125    0.0000 C   0  0  0  0  0  0  0  0  0  0  0  0
    2.5645    0.0000    0.0000 C   0  0  0  0  0  0  0  0  0  0  0  0
    1.7798   -0.2549    0.0000 N   0  0  0  0  0  0  0  0  0  0  0  0
    1.2949    0.4125    0.0000 C   0  0  0  0  0  0  0  0  0  0  0  0
    0.4699    0.4125    0.0000 C   0  0  0  0  0  0  0  0  0  0  0  0
    0.0574   -0.3020    0.0000 C   0  0  0  0  0  0  0  0  0  0  0  0
   -0.7676   -0.3020    0.0000 C   0  0  0  0  0  0  0  0  0  0  0  0
   -1.1801    0.4125    0.0000 C   0  0  0  0  0  0  0  0  0  0  0  0
   -0.7676    1.1270    0.0000 C   0  0  0  0  0  0  0  0  0  0  0  0
   -1.1801    1.8414    0.0000 O   0  0  0  0  0  0  0  0  0  0  0  0
   -0.7676    2.5559    0.0000 C   0  0  0  0  0  0  0  0  0  0  0  0
   -1.1801    3.2704    0.0000 C   0  0  0  0  0  0  0  0  0  0  0  0
   -0.7676    3.9849    0.0000 C   0  0  0  0  0  0  0  0  0  0  0  0
    0.0574    3.9849    0.0000 C   0  0  0  0  0  0  0  0  0  0  0  0
    0.4699    3.2704    0.0000 C   0  0  0  0  0  0  0  0  0  0  0  0
    0.0574    2.5559    0.0000 C   0  0  0  0  0  0  0  0  0  0  0  0
    0.0574    1.1270    0.0000 C   0  0  0  0  0  0  0  0  0  0  0  0
    1.7798    1.0799    0.0000 N   0  0  0  0  0  0  0  0  0  0  0  0
    2.5645    0.8250    0.0000 C   0  0  0  0  0  0  0  0  0  0  0  0
  1  2  2  0  0  0  0
  2  3  1  0  0  0  0
  2  4  1  0  0  0  0
  4  5  4  0  0  0  0
  5  6  4  0  0  0  0
  6  7  4  0  0  0  0
  7  8  4  0  0  0  0
  8  9  4  0  0  0  0
  9 10  4  0  0  0  0
 10 11  1  0  0  0  0
 11 12  4  0  0  0  0
 12 13  4  0  0  0  0
 13 14  4  0  0  0  0
 14 15  4  0  0  0  0
 15 16  1  0  0  0  0
 16 17  1  0  0  0  0
 17 18  4  0  0  0  0
 18 19  4  0  0  0  0
 19 20  4  0  0  0  0
 20 21  4  0  0  0  0
 21 22  4  0  0  0  0
 17 22  4  0  0  0  0
 15 23  4  0  0  0  0
 11 23  4  0  0  0  0
 10 24  4  0  0  0  0
 24 25  4  0  0  0  0
  4 25  4  0  0  0  0
  8 25  4  0  0  0  0
M  STY  1   1 DAT
M  SAL   1  1   9
M  SDT   1 MRV_IMPLICIT_H                                        
M  SDD   1     0.5304   -0.4125    DR    ALL  0       0  
M  SED   1 IMPL_H1
M  END
> <IC50(uM)>
7.2

> <Outcome>
0.0

> <BindingDB ID>
297747

> <BindingDB MonomerID>
155403

> <BindingDB Ligand Name>
US9006454, I9

> <Curation/DataSource>
US Patent

> <Article DOI>
?

> <PMID>
?

> <Patent Number>
US9006454

> <Authors>
Thunuguntla, SS; Subramanya, H; Kunnam, SR; Sanivaru Vijay, SR; Bingi, C; Kusanur, R; Schwarz, M; Arlt, M

> <Link to Ligand in BindingDB>
http://www.bindingdb.org/bind/chemsearch/marvin/MolStructure.jsp?monomerid=155403

> <Link to Ligand-Target Pair in BindingDB>
http://www.bindingdb.org/jsp/dbsearch/PrimarySearch_ki.jsp?energyterm=kJ/mole&tag=r21&monomerid=155403&enzyme=Dihydroorotate+dehydrogenase&column=ki&startPg=0&Increment=50&submit=Search

> <PubChem CID>
46945582

> <PubChem SID>
253658340

$$$$

  Mrv2115 07222212352D          

 22 24  0  0  0  0            999 V2000
    4.0668    2.3479    0.0000 C   0  0  0  0  0  0  0  0  0  0  0  0
    3.3523    1.9354    0.0000 C   0  0  0  0  0  0  0  0  0  0  0  0
    3.3523    1.1104    0.0000 C   0  0  0  0  0  0  0  0  0  0  0  0
    2.6378    0.6979    0.0000 C   0  0  0  0  0  0  0  0  0  0  0  0
    2.6378   -0.1271    0.0000 N   0  0  0  0  0  0  0  0  0  0  0  0
    1.9233   -0.5396    0.0000 C   0  0  0  0  0  0  0  0  0  0  0  0
    1.9233   -1.3646    0.0000 C   0  0  0  0  0  0  0  0  0  0  0  0
    1.2089   -1.7771    0.0000 C   0  0  0  0  0  0  0  0  0  0  0  0
    0.4944   -1.3646    0.0000 C   0  0  0  0  0  0  0  0  0  0  0  0
   -0.2201   -1.7771    0.0000 Br  0  0  0  0  0  0  0  0  0  0  0  0
    0.4944   -0.5396    0.0000 C   0  0  0  0  0  0  0  0  0  0  0  0
   -0.2201   -0.1271    0.0000 C   0  0  0  0  0  0  0  0  0  0  0  0
   -0.9345    0.2854    0.0000 F   0  0  0  0  0  0  0  0  0  0  0  0
    0.1924    0.5874    0.0000 F   0  0  0  0  0  0  0  0  0  0  0  0
   -0.6326   -0.8415    0.0000 F   0  0  0  0  0  0  0  0  0  0  0  0
    1.2089   -0.1271    0.0000 C   0  0  0  0  0  0  0  0  0  0  0  0
    1.9233    1.1104    0.0000 N   0  0  0  0  0  0  0  0  0  0  0  0
    1.1387    0.8555    0.0000 N   0  0  0  0  0  0  0  0  0  0  0  0
    0.6538    1.5229    0.0000 C   0  0  0  0  0  0  0  0  0  0  0  0
    1.1387    2.1904    0.0000 N   0  0  0  0  0  0  0  0  0  0  0  0
    1.9233    1.9354    0.0000 C   0  0  0  0  0  0  0  0  0  0  0  0
    2.6378    2.3479    0.0000 N   0  0  0  0  0  0  0  0  0  0  0  0
  1  2  1  0  0  0  0
  2  3  4  0  0  0  0
  3  4  4  0  0  0  0
  4  5  1  0  0  0  0
  5  6  1  0  0  0  0
  6  7  4  0  0  0  0
  7  8  4  0  0  0  0
  8  9  4  0  0  0  0
  9 10  1  0  0  0  0
  9 11  4  0  0  0  0
 11 12  1  0  0  0  0
 12 13  1  0  0  0  0
 12 14  1  0  0  0  0
 12 15  1  0  0  0  0
 11 16  4  0  0  0  0
  6 16  4  0  0  0  0
  4 17  4  0  0  0  0
 17 18  4  0  0  0  0
 18 19  4  0  0  0  0
 19 20  4  0  0  0  0
 20 21  4  0  0  0  0
 17 21  4  0  0  0  0
 21 22  4  0  0  0  0
  2 22  4  0  0  0  0
M  END
> <IC50(uM)>
100.0

> <Outcome>
0.0

> <BindingDB ID>
52451

> <BindingDB MonomerID>
28838

> <BindingDB Ligand Name>
N-[4-bromo-3-(trifluoromethyl)phenyl]-5-methyl-[1,2,4]triazolo[1,5-a]pyrimidin-7-amine::triazolopyrimidine-based compound, DSM128

> <Curation/DataSource>
Curated from the literature by BindingDB

> <Article DOI>
10.1021/jm801343r

> <PMID>
19296651

> <Patent Number>
?

> <Authors>
Gujjar, R; Marwaha, A; El Mazouni, F; White, J; White, KL; Creason, S; Shackleford, DM; Baldwin, J; Charman, WN; Buckner, FS; Charman, S; Rathod, PK; Phillips, MA

> <Link to Ligand in BindingDB>
http://www.bindingdb.org/bind/chemsearch/marvin/MolStructure.jsp?monomerid=28838

> <Link to Ligand-Target Pair in BindingDB>
http://www.bindingdb.org/jsp/dbsearch/PrimarySearch_ki.jsp?energyterm=kJ/mole&tag=r21&monomerid=28838&enzyme=Dihydroorotate+Dehydrogenase+%28DHODH%29&column=ki&startPg=0&Increment=50&submit=Search

> <PubChem CID>
25263431

> <PubChem SID>
58098026

$$$$

  Mrv2115 07222212352D          

 29 32  0  0  0  0            999 V2000
   -2.6462   -3.5558    0.0000 C   0  0  0  0  0  0  0  0  0  0  0  0
   -3.0587   -2.8414    0.0000 C   0  0  0  0  0  0  0  0  0  0  0  0
   -3.8837   -2.8414    0.0000 O   0  0  0  0  0  0  0  0  0  0  0  0
   -2.6462   -2.1269    0.0000 N   0  0  0  0  0  0  0  0  0  0  0  0
   -3.0587   -1.4124    0.0000 C   0  0  0  0  0  0  0  0  0  0  0  0
   -3.8837   -1.4124    0.0000 C   0  0  0  0  0  0  0  0  0  0  0  0
   -4.2962   -0.6979    0.0000 C   0  0  0  0  0  0  0  0  0  0  0  0
   -3.8837    0.0165    0.0000 C   0  0  0  0  0  0  0  0  0  0  0  0
   -3.0587    0.0165    0.0000 C   0  0  0  0  0  0  0  0  0  0  0  0
   -2.6462   -0.6979    0.0000 C   0  0  0  0  0  0  0  0  0  0  0  0
   -1.8212   -0.6979    0.0000 C   0  0  0  0  0  0  0  0  0  0  0  0
   -1.4087    0.0165    0.0000 C   0  0  0  0  0  0  0  0  0  0  0  0
   -0.5837    0.0165    0.0000 C   0  0  0  0  0  0  0  0  0  0  0  0
   -0.1712   -0.6979    0.0000 C   0  0  0  0  0  0  0  0  0  0  0  0
    0.6538   -0.6979    0.0000 C   0  0  0  0  0  0  0  0  0  0  0  0
    1.1387   -0.0305    0.0000 N   0  0  0  0  0  0  0  0  0  0  0  0
    1.9233   -0.2854    0.0000 C   0  0  0  0  0  0  0  0  0  0  0  0
    2.6378    0.1271    0.0000 C   0  0  0  0  0  0  0  0  0  0  0  0
    2.6378    0.9521    0.0000 C   0  0  0  0  0  0  0  0  0  0  0  0
    1.9233    1.3646    0.0000 O   0  0  0  0  0  0  0  0  0  0  0  0
    3.3523    1.3646    0.0000 O   0  0  0  0  0  0  0  0  0  0  0  0
    3.3523   -0.2854    0.0000 C   0  0  0  0  0  0  0  0  0  0  0  0
    3.3523   -1.1104    0.0000 C   0  0  0  0  0  0  0  0  0  0  0  0
    4.0668   -1.5229    0.0000 C   0  0  0  0  0  0  0  0  0  0  0  0
    2.6378   -1.5229    0.0000 C   0  0  0  0  0  0  0  0  0  0  0  0
    1.9233   -1.1104    0.0000 C   0  0  0  0  0  0  0  0  0  0  0  0
    1.1387   -1.3654    0.0000 N   0  0  0  0  0  0  0  0  0  0  0  0
   -0.5837   -1.4124    0.0000 C   0  0  0  0  0  0  0  0  0  0  0  0
   -1.4087   -1.4124    0.0000 C   0  0  0  0  0  0  0  0  0  0  0  0
  1  2  1  0  0  0  0
  2  3  2  0  0  0  0
  2  4  1  0  0  0  0
  4  5  1  0  0  0  0
  5  6  4  0  0  0  0
  6  7  4  0  0  0  0
  7  8  4  0  0  0  0
  8  9  4  0  0  0  0
  9 10  4  0  0  0  0
  5 10  4  0  0  0  0
 10 11  1  0  0  0  0
 11 12  4  0  0  0  0
 12 13  4  0  0  0  0
 13 14  4  0  0  0  0
 14 15  1  0  0  0  0
 15 16  4  0  0  0  0
 16 17  4  0  0  0  0
 17 18  4  0  0  0  0
 18 19  1  0  0  0  0
 19 20  2  0  0  0  0
 19 21  1  0  0  0  0
 18 22  4  0  0  0  0
 22 23  4  0  0  0  0
 23 24  1  0  0  0  0
 23 25  4  0  0  0  0
 25 26  4  0  0  0  0
 17 26  4  0  0  0  0
 26 27  4  0  0  0  0
 15 27  4  0  0  0  0
 14 28  4  0  0  0  0
 28 29  4  0  0  0  0
 11 29  4  0  0  0  0
M  STY  1   1 DAT
M  SAL   1  1  27
M  SDT   1 MRV_IMPLICIT_H                                        
M  SDD   1     0.5304   -0.4125    DR    ALL  0       0  
M  SED   1 IMPL_H1
M  END
> <IC50(uM)>
32.0

> <Outcome>
0.0

> <BindingDB ID>
50358205

> <BindingDB MonomerID>
50096197

> <BindingDB Ligand Name>
CHEMBL3593803

> <Curation/DataSource>
ChEMBL

> <Article DOI>
10.1016/j.bmc.2015.05.051

> <PMID>
26088338

> <Patent Number>
?

> <Authors>
Abdullah, I; Chee, CF; Lee, YK; Thunuguntla, SS; Satish Reddy, K; Nellore, K; Antony, T; Verma, J; Mun, KW; Othman, S; Subramanya, H; Rahman, NA

> <Link to Ligand in BindingDB>
http://www.bindingdb.org/bind/chemsearch/marvin/MolStructure.jsp?monomerid=50096197

> <Link to Ligand-Target Pair in BindingDB>
http://www.bindingdb.org/jsp/dbsearch/PrimarySearch_ki.jsp?energyterm=kJ/mole&tag=r21&monomerid=50096197&enzyme=Dihydroorotate+dehydrogenase&column=ki&startPg=0&Increment=50&submit=Search

> <PubChem CID>
122182178

> <PubChem SID>
103993764

$$$$

  Mrv2115 07222212352D          

 36 40  0  0  0  0            999 V2000
   -0.1712   -0.6979    0.0000 C   0  0  0  0  0  0  0  0  0  0  0  0
    0.6538   -0.6979    0.0000 N   0  0  0  0  0  0  0  0  0  0  0  0
    1.1387   -0.0305    0.0000 N   0  0  0  0  0  0  0  0  0  0  0  0
    1.9233   -0.2854    0.0000 C   0  0  0  0  0  0  0  0  0  0  0  0
    2.6378    0.1271    0.0000 C   0  0  0  0  0  0  0  0  0  0  0  0
    3.3523   -0.2854    0.0000 C   0  0  0  0  0  0  0  0  0  0  0  0
    4.0668    0.1271    0.0000 C   0  0  0  0  0  0  0  0  0  0  0  0
    4.0668    0.9521    0.0000 C   0  0  0  0  0  0  0  0  0  0  0  0
    3.3523    1.3646    0.0000 F   0  0  0  0  0  0  0  0  0  0  0  0
    4.7812    1.3646    0.0000 C   0  0  0  0  0  0  0  0  0  0  0  0
    4.7812    2.1896    0.0000 F   0  0  0  0  0  0  0  0  0  0  0  0
    5.4957    0.9521    0.0000 C   0  0  0  0  0  0  0  0  0  0  0  0
    6.2102    1.3646    0.0000 C   0  0  0  0  0  0  0  0  0  0  0  0
    6.2102    2.1896    0.0000 C   0  0  0  0  0  0  0  0  0  0  0  0
    6.9246    2.6021    0.0000 C   0  0  0  0  0  0  0  0  0  0  0  0
    7.6391    2.1896    0.0000 C   0  0  0  0  0  0  0  0  0  0  0  0
    7.6391    1.3646    0.0000 C   0  0  0  0  0  0  0  0  0  0  0  0
    8.3536    0.9521    0.0000 C   0  0  0  0  0  0  0  0  0  0  0  0
    8.3536    0.1271    0.0000 N   0  0  0  0  0  0  0  0  0  0  0  0
    9.0681   -0.2854    0.0000 C   0  0  0  0  0  0  0  0  0  0  0  0
    9.0681   -1.1104    0.0000 C   0  0  0  0  0  0  0  0  0  0  0  0
    8.3536   -1.5229    0.0000 O   0  0  0  0  0  0  0  0  0  0  0  0
    7.6391   -1.1104    0.0000 C   0  0  0  0  0  0  0  0  0  0  0  0
    7.6391   -0.2854    0.0000 C   0  0  0  0  0  0  0  0  0  0  0  0
    6.9246    0.9521    0.0000 C   0  0  0  0  0  0  0  0  0  0  0  0
    5.4957    0.1271    0.0000 C   0  0  0  0  0  0  0  0  0  0  0  0
    6.2102   -0.2854    0.0000 F   0  0  0  0  0  0  0  0  0  0  0  0
    4.7812   -0.2854    0.0000 C   0  0  0  0  0  0  0  0  0  0  0  0
    4.7812   -1.1104    0.0000 F   0  0  0  0  0  0  0  0  0  0  0  0
    3.3523   -1.1104    0.0000 C   0  0  0  0  0  0  0  0  0  0  0  0
    2.6378   -1.5229    0.0000 C   0  0  0  0  0  0  0  0  0  0  0  0
    2.6378   -2.3479    0.0000 C   0  0  0  0  0  0  0  0  0  0  0  0
    1.9233   -2.7604    0.0000 O   0  0  0  0  0  0  0  0  0  0  0  0
    3.3523   -2.7604    0.0000 O   0  0  0  0  0  0  0  0  0  0  0  0
    1.9233   -1.1104    0.0000 C   0  0  0  0  0  0  0  0  0  0  0  0
    1.1387   -1.3654    0.0000 N   0  0  0  0  0  0  0  0  0  0  0  0
  1  2  1  0  0  0  0
  2  3  4  0  0  0  0
  3  4  4  0  0  0  0
  4  5  4  0  0  0  0
  5  6  4  0  0  0  0
  6  7  1  0  0  0  0
  7  8  4  0  0  0  0
  8  9  1  0  0  0  0
  8 10  4  0  0  0  0
 10 11  1  0  0  0  0
 10 12  4  0  0  0  0
 12 13  1  0  0  0  0
 13 14  4  0  0  0  0
 14 15  4  0  0  0  0
 15 16  4  0  0  0  0
 16 17  4  0  0  0  0
 17 18  1  0  0  0  0
 18 19  1  0  0  0  0
 19 20  1  0  0  0  0
 20 21  1  0  0  0  0
 21 22  1  0  0  0  0
 22 23  1  0  0  0  0
 23 24  1  0  0  0  0
 19 24  1  0  0  0  0
 17 25  4  0  0  0  0
 13 25  4  0  0  0  0
 12 26  4  0  0  0  0
 26 27  1  0  0  0  0
 26 28  4  0  0  0  0
  7 28  4  0  0  0  0
 28 29  1  0  0  0  0
  6 30  4  0  0  0  0
 30 31  4  0  0  0  0
 31 32  1  0  0  0  0
 32 33  2  0  0  0  0
 32 34  1  0  0  0  0
 31 35  4  0  0  0  0
  4 35  4  0  0  0  0
 35 36  4  0  0  0  0
  2 36  4  0  0  0  0
M  END
> <IC50(uM)>
0.55

> <Outcome>
1.0

> <BindingDB ID>
1100174

> <BindingDB MonomerID>
520633

> <BindingDB Ligand Name>
2-methyl-6-(2,3,5,6-tetrafluoro-3'-(morpholinomethyl)-[1,1'-biphenyl]-4-yl)-2H- benzo[d][1,2,3]triazole-4-carboxylic acid; and::US11147801, Compound 39

> <Curation/DataSource>
US Patent

> <Article DOI>
?

> <PMID>
?

> <Patent Number>
US11147801

> <Authors>
Nellore, K; Hosahalli, S

> <Link to Ligand in BindingDB>
http://www.bindingdb.org/bind/chemsearch/marvin/MolStructure.jsp?monomerid=520633

> <Link to Ligand-Target Pair in BindingDB>
http://www.bindingdb.org/jsp/dbsearch/PrimarySearch_ki.jsp?energyterm=kJ/mole&tag=r21&monomerid=520633&enzyme=Dihydroorotate+dehydrogenase&column=ki&startPg=0&Increment=50&submit=Search

> <PubChem CID>
?

> <PubChem SID>
?

$$$$

  Mrv2115 07222212352D          

 30 34  0  0  0  0            999 V2000
    3.3523   -0.2854    0.0000 O   0  0  0  0  0  0  0  0  0  0  0  0
    3.3523   -1.1104    0.0000 C   0  0  0  0  0  0  0  0  0  0  0  0
    4.0668   -1.5229    0.0000 C   0  0  0  0  0  0  0  0  0  0  0  0
    4.7812   -1.1104    0.0000 C   0  0  0  0  0  0  0  0  0  0  0  0
    5.4957   -1.5229    0.0000 C   0  0  0  0  0  0  0  0  0  0  0  0
    5.4957   -2.3479    0.0000 C   0  0  0  0  0  0  0  0  0  0  0  0
    4.7812   -2.7604    0.0000 C   0  0  0  0  0  0  0  0  0  0  0  0
    4.0668   -2.3479    0.0000 C   0  0  0  0  0  0  0  0  0  0  0  0
    3.3523   -2.7604    0.0000 C   0  0  0  0  0  0  0  0  0  0  0  0
    3.3523   -3.5854    0.0000 O   0  0  0  0  0  0  0  0  0  0  0  0
    2.6378   -2.3479    0.0000 C   0  0  0  0  0  0  0  0  0  0  0  0
    2.6378   -1.5229    0.0000 C   0  0  0  0  0  0  0  0  0  0  0  0
    1.8532   -1.2680    0.0000 N   0  0  0  0  0  0  0  0  0  0  0  0
    1.3683   -1.9354    0.0000 N   0  0  0  0  0  0  0  0  0  0  0  0
    1.8532   -2.6029    0.0000 N   0  0  0  0  0  0  0  0  0  0  0  0
    1.5983   -3.3875    0.0000 C   0  0  0  0  0  0  0  0  0  0  0  0
    2.1503   -4.0006    0.0000 C   0  0  0  0  0  0  0  0  0  0  0  0
    1.8953   -4.7852    0.0000 C   0  0  0  0  0  0  0  0  0  0  0  0
    2.4474   -5.3983    0.0000 F   0  0  0  0  0  0  0  0  0  0  0  0
    1.0884   -4.9567    0.0000 C   0  0  0  0  0  0  0  0  0  0  0  0
    0.8334   -5.7414    0.0000 C   0  0  0  0  0  0  0  0  0  0  0  0
    1.3855   -6.3545    0.0000 C   0  0  0  0  0  0  0  0  0  0  0  0
    1.1305   -7.1391    0.0000 C   0  0  0  0  0  0  0  0  0  0  0  0
    0.3236   -7.3106    0.0000 C   0  0  0  0  0  0  0  0  0  0  0  0
   -0.2285   -6.6975    0.0000 C   0  0  0  0  0  0  0  0  0  0  0  0
    0.0265   -5.9129    0.0000 C   0  0  0  0  0  0  0  0  0  0  0  0
   -0.5256   -5.2998    0.0000 F   0  0  0  0  0  0  0  0  0  0  0  0
    0.5363   -4.3437    0.0000 C   0  0  0  0  0  0  0  0  0  0  0  0
   -0.2706   -4.5152    0.0000 F   0  0  0  0  0  0  0  0  0  0  0  0
    0.7913   -3.5590    0.0000 C   0  0  0  0  0  0  0  0  0  0  0  0
  1  2  2  0  0  0  0
  2  3  1  0  0  0  0
  3  4  4  0  0  0  0
  4  5  4  0  0  0  0
  5  6  4  0  0  0  0
  6  7  4  0  0  0  0
  7  8  4  0  0  0  0
  3  8  4  0  0  0  0
  8  9  1  0  0  0  0
  9 10  2  0  0  0  0
  9 11  1  0  0  0  0
 11 12  4  0  0  0  0
  2 12  1  0  0  0  0
 12 13  4  0  0  0  0
 13 14  4  0  0  0  0
 14 15  4  0  0  0  0
 11 15  4  0  0  0  0
 15 16  1  0  0  0  0
 16 17  4  0  0  0  0
 17 18  4  0  0  0  0
 18 19  1  0  0  0  0
 18 20  4  0  0  0  0
 20 21  1  0  0  0  0
 21 22  4  0  0  0  0
 22 23  4  0  0  0  0
 23 24  4  0  0  0  0
 24 25  4  0  0  0  0
 25 26  4  0  0  0  0
 21 26  4  0  0  0  0
 26 27  1  0  0  0  0
 20 28  4  0  0  0  0
 28 29  1  0  0  0  0
 28 30  4  0  0  0  0
 16 30  4  0  0  0  0
M  END
> <IC50(uM)>
0.0045

> <Outcome>
1.0

> <BindingDB ID>
51338199

> <BindingDB MonomerID>
50541673

> <BindingDB Ligand Name>
CHEMBL4646288

> <Curation/DataSource>
ChEMBL

> <Article DOI>
10.1021/acs.jmedchem.0c00512

> <PMID>
32496056

> <Patent Number>
?

> <Authors>
Zuo, Z; Liu, X; Qian, X; Zeng, T; Sang, N; Liu, H; Zhou, Y; Tao, L; Zhou, X; Su, N; Yu, Y; Chen, Q; Luo, Y; Zhao, Y

> <Link to Ligand in BindingDB>
http://www.bindingdb.org/bind/chemsearch/marvin/MolStructure.jsp?monomerid=50541673

> <Link to Ligand-Target Pair in BindingDB>
http://www.bindingdb.org/jsp/dbsearch/PrimarySearch_ki.jsp?energyterm=kJ/mole&tag=r21&monomerid=50541673&enzyme=Dihydroorotate+dehydrogenase&column=ki&startPg=0&Increment=50&submit=Search

> <PubChem CID>
145997864

> <PubChem SID>
442143236

$$$$

  Mrv2115 07222212352D          

 32 34  0  0  0  0            999 V2000
   -0.7145   -3.7125    0.0000 O   0  0  0  0  0  0  0  0  0  0  0  0
    0.0000   -4.1250    0.0000 C   0  0  0  0  0  0  0  0  0  0  0  0
    0.7145   -3.7125    0.0000 N   0  0  0  0  0  0  0  0  0  0  0  0
    0.7145   -2.8875    0.0000 C   0  0  0  0  0  0  0  0  0  0  0  0
    0.0000   -2.4750    0.0000 C   0  0  0  0  0  0  0  0  0  0  0  0
   -0.7145   -2.8875    0.0000 F   0  0  0  0  0  0  0  0  0  0  0  0
    0.0000   -1.6500    0.0000 C   0  0  0  0  0  0  0  0  0  0  0  0
   -0.7145   -1.2375    0.0000 F   0  0  0  0  0  0  0  0  0  0  0  0
    0.7145   -1.2375    0.0000 C   0  0  0  0  0  0  0  0  0  0  0  0
    0.7145   -0.4125    0.0000 C   0  0  0  0  0  0  0  0  0  0  0  0
    0.0000    0.0000    0.0000 C   0  0  0  0  0  0  0  0  0  0  0  0
    0.0000    0.8250    0.0000 C   0  0  0  0  0  0  0  0  0  0  0  0
    0.7145    1.2375    0.0000 C   0  0  0  0  0  0  0  0  0  0  0  0
    1.4289    0.8250    0.0000 C   0  0  0  0  0  0  0  0  0  0  0  0
    2.1434    1.2375    0.0000 O   0  0  0  0  0  0  0  0  0  0  0  0
    2.1434    2.0625    0.0000 C   0  0  0  0  0  0  0  0  0  0  0  0
    2.1434    2.8875    0.0000 F   0  0  0  0  0  0  0  0  0  0  0  0
    1.3184    2.0625    0.0000 F   0  0  0  0  0  0  0  0  0  0  0  0
    2.9684    2.0625    0.0000 F   0  0  0  0  0  0  0  0  0  0  0  0
    1.4289   -0.0000    0.0000 C   0  0  0  0  0  0  0  0  0  0  0  0
    1.4289   -1.6500    0.0000 C   0  0  0  0  0  0  0  0  0  0  0  0
    2.1434   -1.2375    0.0000 F   0  0  0  0  0  0  0  0  0  0  0  0
    1.4289   -2.4750    0.0000 C   0  0  0  0  0  0  0  0  0  0  0  0
    2.1434   -2.8875    0.0000 F   0  0  0  0  0  0  0  0  0  0  0  0
    0.0000   -4.9500    0.0000 C   0  0  0  0  0  0  0  0  0  0  0  0
    0.6674   -5.4349    0.0000 C   0  0  0  0  0  0  0  0  0  0  0  0
    0.4125   -6.2195    0.0000 C   0  0  0  0  0  0  0  0  0  0  0  0
   -0.4125   -6.2195    0.0000 S   0  0  0  0  0  0  0  0  0  0  0  0
   -0.6674   -5.4349    0.0000 C   0  0  0  0  0  0  0  0  0  0  0  0
   -1.4521   -5.1800    0.0000 C   0  0  0  0  0  0  0  0  0  0  0  0
   -2.0652   -5.7320    0.0000 O   0  0  0  0  0  0  0  0  0  0  0  0
   -1.6236   -4.3730    0.0000 O   0  0  0  0  0  0  0  0  0  0  0  0
  1  2  2  0  0  0  0
  2  3  1  0  0  0  0
  3  4  1  0  0  0  0
  4  5  4  0  0  0  0
  5  6  1  0  0  0  0
  5  7  4  0  0  0  0
  7  8  1  0  0  0  0
  7  9  4  0  0  0  0
  9 10  1  0  0  0  0
 10 11  4  0  0  0  0
 11 12  4  0  0  0  0
 12 13  4  0  0  0  0
 13 14  4  0  0  0  0
 14 15  1  0  0  0  0
 15 16  1  0  0  0  0
 16 17  1  0  0  0  0
 16 18  1  0  0  0  0
 16 19  1  0  0  0  0
 14 20  4  0  0  0  0
 10 20  4  0  0  0  0
  9 21  4  0  0  0  0
 21 22  1  0  0  0  0
 21 23  4  0  0  0  0
  4 23  4  0  0  0  0
 23 24  1  0  0  0  0
  2 25  1  0  0  0  0
 25 26  4  0  0  0  0
 26 27  4  0  0  0  0
 27 28  4  0  0  0  0
 28 29  4  0  0  0  0
 25 29  4  0  0  0  0
 29 30  1  0  0  0  0
 30 31  2  0  0  0  0
 30 32  1  0  0  0  0
M  END
> <IC50(uM)>
0.0015

> <Outcome>
1.0

> <BindingDB ID>
51292545

> <BindingDB MonomerID>
50526855

> <BindingDB Ligand Name>
CHEMBL4580266

> <Curation/DataSource>
ChEMBL

> <Article DOI>
10.1016/j.ejmech.2019.111681

> <PMID>
31557612

> <Patent Number>
?

> <Authors>
Boschi, D; Pippione, AC; Sainas, S; Lolli, ML

> <Link to Ligand in BindingDB>
http://www.bindingdb.org/bind/chemsearch/marvin/MolStructure.jsp?monomerid=50526855

> <Link to Ligand-Target Pair in BindingDB>
http://www.bindingdb.org/jsp/dbsearch/PrimarySearch_ki.jsp?energyterm=kJ/mole&tag=r21&monomerid=50526855&enzyme=Dihydroorotate+dehydrogenase&column=ki&startPg=0&Increment=50&submit=Search

> <PubChem CID>
46200812

> <PubChem SID>
440735437

$$$$

  Mrv2115 07222212352D          

 29 32  0  0  0  0            999 V2000
    2.5559   -1.8243    0.0000 O   0  0  0  0  0  0  0  0  0  0  0  0
    2.5559   -2.6493    0.0000 C   0  0  0  0  0  0  0  0  0  0  0  0
    1.8414   -3.0618    0.0000 O   0  0  0  0  0  0  0  0  0  0  0  0
    3.2704   -3.0618    0.0000 C   0  0  0  0  0  0  0  0  0  0  0  0
    3.2704   -3.8868    0.0000 C   0  0  0  0  0  0  0  0  0  0  0  0
    3.9849   -4.2993    0.0000 C   0  0  0  0  0  0  0  0  0  0  0  0
    3.9849   -5.1243    0.0000 C   0  0  0  0  0  0  0  0  0  0  0  0
    4.3974   -5.8388    0.0000 C   0  0  0  0  0  0  0  0  0  0  0  0
    3.5724   -5.8388    0.0000 C   0  0  0  0  0  0  0  0  0  0  0  0
    4.6993   -3.8868    0.0000 C   0  0  0  0  0  0  0  0  0  0  0  0
    4.6993   -3.0618    0.0000 C   0  0  0  0  0  0  0  0  0  0  0  0
    3.9849   -2.6493    0.0000 C   0  0  0  0  0  0  0  0  0  0  0  0
    3.9849   -1.8243    0.0000 N   0  0  0  0  0  0  0  0  0  0  0  0
    4.6993   -1.4118    0.0000 C   0  0  0  0  0  0  0  0  0  0  0  0
    4.6993   -0.5868    0.0000 C   0  0  0  0  0  0  0  0  0  0  0  0
    5.4138   -0.1743    0.0000 N   0  0  0  0  0  0  0  0  0  0  0  0
    6.1283   -0.5868    0.0000 C   0  0  0  0  0  0  0  0  0  0  0  0
    6.8427   -0.1743    0.0000 C   0  0  0  0  0  0  0  0  0  0  0  0
    6.8427    0.6507    0.0000 C   0  0  0  0  0  0  0  0  0  0  0  0
    7.5572    1.0632    0.0000 C   0  0  0  0  0  0  0  0  0  0  0  0
    8.2717    0.6507    0.0000 C   0  0  0  0  0  0  0  0  0  0  0  0
    8.2717   -0.1743    0.0000 C   0  0  0  0  0  0  0  0  0  0  0  0
    7.5572   -0.5868    0.0000 C   0  0  0  0  0  0  0  0  0  0  0  0
    7.5572   -1.4118    0.0000 C   0  0  0  0  0  0  0  0  0  0  0  0
    7.5572   -2.2368    0.0000 F   0  0  0  0  0  0  0  0  0  0  0  0
    6.7322   -1.4118    0.0000 F   0  0  0  0  0  0  0  0  0  0  0  0
    8.3822   -1.4118    0.0000 F   0  0  0  0  0  0  0  0  0  0  0  0
    6.1283   -1.4118    0.0000 N   0  0  0  0  0  0  0  0  0  0  0  0
    5.4138   -1.8243    0.0000 C   0  0  0  0  0  0  0  0  0  0  0  0
  1  2  2  0  0  0  0
  2  3  1  0  0  0  0
  2  4  1  0  0  0  0
  4  5  4  0  0  0  0
  5  6  4  0  0  0  0
  6  7  1  0  0  0  0
  7  8  1  0  0  0  0
  8  9  1  0  0  0  0
  7  9  1  0  0  0  0
  6 10  4  0  0  0  0
 10 11  4  0  0  0  0
 11 12  4  0  0  0  0
  4 12  4  0  0  0  0
 12 13  1  0  0  0  0
 13 14  1  0  0  0  0
 14 15  4  0  0  0  0
 15 16  4  0  0  0  0
 16 17  4  0  0  0  0
 17 18  1  0  0  0  0
 18 19  4  0  0  0  0
 19 20  4  0  0  0  0
 20 21  4  0  0  0  0
 21 22  4  0  0  0  0
 22 23  4  0  0  0  0
 18 23  4  0  0  0  0
 23 24  1  0  0  0  0
 24 25  1  0  0  0  0
 24 26  1  0  0  0  0
 24 27  1  0  0  0  0
 17 28  4  0  0  0  0
 28 29  4  0  0  0  0
 14 29  4  0  0  0  0
M  END
> <IC50(uM)>
0.009

> <Outcome>
1.0

> <BindingDB ID>
220023

> <BindingDB MonomerID>
102493

> <BindingDB Ligand Name>
US8536165, 97

> <Curation/DataSource>
US Patent

> <Article DOI>
?

> <PMID>
?

> <Patent Number>
US8536165

> <Authors>
Castro Palomino Laria, JC; Terricabras Belart, E; Erra Sola, M; Navarro Romero, E; Fonquerna Pou, S; Cardus Figueras, A; Lozoya Toribio, ME

> <Link to Ligand in BindingDB>
http://www.bindingdb.org/bind/chemsearch/marvin/MolStructure.jsp?monomerid=102493

> <Link to Ligand-Target Pair in BindingDB>
http://www.bindingdb.org/jsp/dbsearch/PrimarySearch_ki.jsp?energyterm=kJ/mole&tag=r21&monomerid=102493&enzyme=Dihydroorotate+dehydrogenase&column=ki&startPg=0&Increment=50&submit=Search

> <PubChem CID>
46909501

> <PubChem SID>
172097784

$$$$

  Mrv2115 07222212352D          

 28 31  0  0  0  0            999 V2000
   -4.2868    2.4750    0.0000 C   0  0  0  0  0  0  0  0  0  0  0  0
   -3.5724    2.0625    0.0000 C   0  0  0  0  0  0  0  0  0  0  0  0
   -2.8579    2.4750    0.0000 C   0  0  0  0  0  0  0  0  0  0  0  0
   -2.1434    2.0625    0.0000 C   0  0  0  0  0  0  0  0  0  0  0  0
   -2.1434    1.2375    0.0000 C   0  0  0  0  0  0  0  0  0  0  0  0
   -1.4289    0.8250    0.0000 C   0  0  0  0  0  0  0  0  0  0  0  0
   -0.7145    1.2375    0.0000 C   0  0  0  0  0  0  0  0  0  0  0  0
    0.0000    0.8250    0.0000 C   0  0  0  0  0  0  0  0  0  0  0  0
    0.0000   -0.0000    0.0000 C   0  0  0  0  0  0  0  0  0  0  0  0
    0.7145   -0.4125    0.0000 C   0  0  0  0  0  0  0  0  0  0  0  0
    1.4289    0.0000    0.0000 N   0  0  0  0  0  0  0  0  0  0  0  0
    2.1434   -0.4125    0.0000 C   0  0  0  0  0  0  0  0  0  0  0  0
    2.8579    0.0000    0.0000 C   0  0  0  0  0  0  0  0  0  0  0  0
    3.5724   -0.4125    0.0000 C   0  0  0  0  0  0  0  0  0  0  0  0
    3.5724   -1.2375    0.0000 C   0  0  0  0  0  0  0  0  0  0  0  0
    2.8579   -1.6500    0.0000 C   0  0  0  0  0  0  0  0  0  0  0  0
    2.1434   -1.2375    0.0000 C   0  0  0  0  0  0  0  0  0  0  0  0
    1.4289   -1.6500    0.0000 C   0  0  0  0  0  0  0  0  0  0  0  0
    1.4289   -2.4750    0.0000 C   0  0  0  0  0  0  0  0  0  0  0  0
    0.7145   -2.8875    0.0000 O   0  0  0  0  0  0  0  0  0  0  0  0
    2.1434   -2.8875    0.0000 O   0  0  0  0  0  0  0  0  0  0  0  0
    0.7145   -1.2375    0.0000 C   0  0  0  0  0  0  0  0  0  0  0  0
    0.0000   -1.6500    0.0000 C   0  0  0  0  0  0  0  0  0  0  0  0
   -0.7145   -0.4125    0.0000 C   0  0  0  0  0  0  0  0  0  0  0  0
   -1.4289   -0.0000    0.0000 C   0  0  0  0  0  0  0  0  0  0  0  0
   -2.8579    0.8250    0.0000 C   0  0  0  0  0  0  0  0  0  0  0  0
   -2.8579   -0.0000    0.0000 Cl  0  0  0  0  0  0  0  0  0  0  0  0
   -3.5724    1.2375    0.0000 N   0  0  0  0  0  0  0  0  0  0  0  0
  1  2  1  0  0  0  0
  2  3  4  0  0  0  0
  3  4  4  0  0  0  0
  4  5  4  0  0  0  0
  5  6  1  0  0  0  0
  6  7  4  0  0  0  0
  7  8  4  0  0  0  0
  8  9  4  0  0  0  0
  9 10  1  0  0  0  0
 10 11  4  0  0  0  0
 11 12  4  0  0  0  0
 12 13  4  0  0  0  0
 13 14  4  0  0  0  0
 14 15  4  0  0  0  0
 15 16  4  0  0  0  0
 16 17  4  0  0  0  0
 12 17  4  0  0  0  0
 17 18  4  0  0  0  0
 18 19  1  0  0  0  0
 19 20  2  0  0  0  0
 19 21  1  0  0  0  0
 18 22  4  0  0  0  0
 10 22  4  0  0  0  0
 22 23  1  0  0  0  0
  9 24  4  0  0  0  0
 24 25  4  0  0  0  0
  6 25  4  0  0  0  0
  5 26  4  0  0  0  0
 26 27  1  0  0  0  0
 26 28  4  0  0  0  0
  2 28  4  0  0  0  0
M  END
> <IC50(uM)>
0.184

> <Outcome>
1.0

> <BindingDB ID>
51126189

> <BindingDB MonomerID>
50461875

> <BindingDB Ligand Name>
CHEMBL4226599

> <Curation/DataSource>
ChEMBL

> <Article DOI>
10.1021/acs.jmedchem.7b01862

> <PMID>
29727569

> <Patent Number>
?

> <Authors>
Madak, JT; Cuthbertson, CR; Miyata, Y; Tamura, S; Petrunak, EM; Stuckey, JA; Han, Y; He, M; Sun, D; Showalter, HD; Neamati, N

> <Link to Ligand in BindingDB>
http://www.bindingdb.org/bind/chemsearch/marvin/MolStructure.jsp?monomerid=50461875

> <Link to Ligand-Target Pair in BindingDB>
http://www.bindingdb.org/jsp/dbsearch/PrimarySearch_ki.jsp?energyterm=kJ/mole&tag=r21&monomerid=50461875&enzyme=Dihydroorotate+dehydrogenase&column=ki&startPg=0&Increment=50&submit=Search

> <PubChem CID>
145969266

> <PubChem SID>
433929140

$$$$

  Mrv2115 07222212352D          

 23 25  0  0  0  0            999 V2000
   -0.7145   -3.7125    0.0000 O   0  0  0  0  0  0  0  0  0  0  0  0
    0.0000   -4.1250    0.0000 C   0  0  0  0  0  0  0  0  0  0  0  0
    0.7145   -3.7125    0.0000 N   0  0  0  0  0  0  0  0  0  0  0  0
    0.7145   -2.8875    0.0000 C   0  0  0  0  0  0  0  0  0  0  0  0
    0.0000   -2.4750    0.0000 C   0  0  0  0  0  0  0  0  0  0  0  0
    0.0000   -1.6500    0.0000 C   0  0  0  0  0  0  0  0  0  0  0  0
    0.7145   -1.2375    0.0000 C   0  0  0  0  0  0  0  0  0  0  0  0
    0.7145   -0.4125    0.0000 C   0  0  0  0  0  0  0  0  0  0  0  0
    0.0000    0.0000    0.0000 C   0  0  0  0  0  0  0  0  0  0  0  0
    0.0000    0.8250    0.0000 C   0  0  0  0  0  0  0  0  0  0  0  0
    0.7145    1.2375    0.0000 C   0  0  0  0  0  0  0  0  0  0  0  0
    1.4289    0.8250    0.0000 C   0  0  0  0  0  0  0  0  0  0  0  0
    1.4289   -0.0000    0.0000 C   0  0  0  0  0  0  0  0  0  0  0  0
    1.4289   -1.6500    0.0000 C   0  0  0  0  0  0  0  0  0  0  0  0
    1.4289   -2.4750    0.0000 C   0  0  0  0  0  0  0  0  0  0  0  0
    0.0000   -4.9500    0.0000 C   0  0  0  0  0  0  0  0  0  0  0  0
    0.6674   -5.4349    0.0000 C   0  0  0  0  0  0  0  0  0  0  0  0
    0.4125   -6.2195    0.0000 C   0  0  0  0  0  0  0  0  0  0  0  0
   -0.4125   -6.2195    0.0000 S   0  0  0  0  0  0  0  0  0  0  0  0
   -0.6674   -5.4349    0.0000 C   0  0  0  0  0  0  0  0  0  0  0  0
   -1.4521   -5.1800    0.0000 C   0  0  0  0  0  0  0  0  0  0  0  0
   -2.0652   -5.7320    0.0000 O   0  0  0  0  0  0  0  0  0  0  0  0
   -1.6236   -4.3730    0.0000 O   0  0  0  0  0  0  0  0  0  0  0  0
  1  2  2  0  0  0  0
  2  3  1  0  0  0  0
  3  4  1  0  0  0  0
  4  5  4  0  0  0  0
  5  6  4  0  0  0  0
  6  7  4  0  0  0  0
  7  8  1  0  0  0  0
  8  9  4  0  0  0  0
  9 10  4  0  0  0  0
 10 11  4  0  0  0  0
 11 12  4  0  0  0  0
 12 13  4  0  0  0  0
  8 13  4  0  0  0  0
  7 14  4  0  0  0  0
 14 15  4  0  0  0  0
  4 15  4  0  0  0  0
  2 16  1  0  0  0  0
 16 17  4  0  0  0  0
 17 18  4  0  0  0  0
 18 19  4  0  0  0  0
 19 20  4  0  0  0  0
 16 20  4  0  0  0  0
 20 21  1  0  0  0  0
 21 22  2  0  0  0  0
 21 23  1  0  0  0  0
M  END
> <IC50(uM)>
0.303

> <Outcome>
1.0

> <BindingDB ID>
29216

> <BindingDB MonomerID>
16113

> <BindingDB Ligand Name>
3-[(4-phenylphenyl)carbamoyl]thiophene-2-carboxylic acid::Biphenyl-4-ylcarbamoyl Thiophene Analog 4

> <Curation/DataSource>
Curated from the literature by BindingDB

> <Article DOI>
10.1016/j.bmcl.2005.10.011

> <PMID>
16246558

> <Patent Number>
?

> <Authors>
Leban, J; Kralik, M; Mies, J; Baumgartner, R; Gassen, M; Tasler, S

> <Link to Ligand in BindingDB>
http://www.bindingdb.org/bind/chemsearch/marvin/MolStructure.jsp?monomerid=16113

> <Link to Ligand-Target Pair in BindingDB>
http://www.bindingdb.org/jsp/dbsearch/PrimarySearch_ki.jsp?energyterm=kJ/mole&tag=r21&monomerid=16113&enzyme=Dihydroorotate+Dehydrogenase+%28DHODH%29&column=ki&startPg=0&Increment=50&submit=Search

> <PubChem CID>
9861992

> <PubChem SID>
46516372

$$$$

  Mrv2115 07222212352D          

 30 33  0  0  0  0            999 V2000
    0.7145   -2.8875    0.0000 C   0  0  0  0  0  0  0  0  0  0  0  0
    0.0000   -2.4750    0.0000 C   0  0  0  0  0  0  0  0  0  0  0  0
   -0.7145   -2.8875    0.0000 C   0  0  0  0  0  0  0  0  0  0  0  0
   -1.4289   -2.4750    0.0000 C   0  0  0  0  0  0  0  0  0  0  0  0
   -1.4289   -1.6500    0.0000 C   0  0  0  0  0  0  0  0  0  0  0  0
   -0.7145   -1.2375    0.0000 C   0  0  0  0  0  0  0  0  0  0  0  0
    0.0000   -1.6500    0.0000 C   0  0  0  0  0  0  0  0  0  0  0  0
    0.7145   -1.2375    0.0000 N   0  0  0  0  0  0  0  0  0  0  0  0
    0.7145   -0.4125    0.0000 C   0  0  0  0  0  0  0  0  0  0  0  0
    1.4289    0.0000    0.0000 C   0  0  0  0  0  0  0  0  0  0  0  0
    1.4289    0.8250    0.0000 C   0  0  0  0  0  0  0  0  0  0  0  0
    2.1434    1.2375    0.0000 C   0  0  0  0  0  0  0  0  0  0  0  0
    0.7145    1.2375    0.0000 C   0  0  0  0  0  0  0  0  0  0  0  0
    2.1434   -0.4125    0.0000 C   0  0  0  0  0  0  0  0  0  0  0  0
    2.8579    0.0000    0.0000 C   0  0  0  0  0  0  0  0  0  0  0  0
    3.5724   -0.4125    0.0000 C   0  0  0  0  0  0  0  0  0  0  0  0
    4.2868   -0.0000    0.0000 C   0  0  0  0  0  0  0  0  0  0  0  0
    4.3731    0.8205    0.0000 C   0  0  0  0  0  0  0  0  0  0  0  0
    5.1800    0.9920    0.0000 N   0  0  0  0  0  0  0  0  0  0  0  0
    5.5156    1.7457    0.0000 C   0  0  0  0  0  0  0  0  0  0  0  0
    5.5925    0.2775    0.0000 C   0  0  0  0  0  0  0  0  0  0  0  0
    6.4130    0.1913    0.0000 C   0  0  0  0  0  0  0  0  0  0  0  0
    6.8979    0.8587    0.0000 O   0  0  0  0  0  0  0  0  0  0  0  0
    5.0405   -0.3356    0.0000 N   0  0  0  0  0  0  0  0  0  0  0  0
    3.5724   -1.2375    0.0000 C   0  0  0  0  0  0  0  0  0  0  0  0
    4.2868   -1.6500    0.0000 F   0  0  0  0  0  0  0  0  0  0  0  0
    2.8579   -1.6500    0.0000 C   0  0  0  0  0  0  0  0  0  0  0  0
    2.1434   -1.2375    0.0000 C   0  0  0  0  0  0  0  0  0  0  0  0
    1.4289   -1.6500    0.0000 C   0  0  0  0  0  0  0  0  0  0  0  0
    1.4289   -2.4750    0.0000 O   0  0  0  0  0  0  0  0  0  0  0  0
  1  2  1  0  0  0  0
  2  3  4  0  0  0  0
  3  4  4  0  0  0  0
  4  5  4  0  0  0  0
  5  6  4  0  0  0  0
  6  7  4  0  0  0  0
  2  7  4  0  0  0  0
  7  8  1  0  0  0  0
  8  9  4  0  0  0  0
  9 10  4  0  0  0  0
 10 11  1  0  0  0  0
 11 12  1  0  0  0  0
 11 13  1  0  0  0  0
 10 14  4  0  0  0  0
 14 15  4  0  0  0  0
 15 16  4  0  0  0  0
 16 17  1  0  0  0  0
 17 18  4  0  0  0  0
 18 19  4  0  0  0  0
 19 20  1  0  0  0  0
 19 21  4  0  0  0  0
 21 22  1  0  0  0  0
 22 23  1  0  0  0  0
 21 24  4  0  0  0  0
 17 24  4  0  0  0  0
 16 25  4  0  0  0  0
 25 26  1  0  0  0  0
 25 27  4  0  0  0  0
 27 28  4  0  0  0  0
 14 28  4  0  0  0  0
 28 29  4  0  0  0  0
  8 29  4  0  0  0  0
 29 30  2  0  0  0  0
M  END
> <IC50(uM)>
0.0012

> <Outcome>
1.0

> <BindingDB ID>
1121370

> <BindingDB MonomerID>
530436

> <BindingDB Ligand Name>
7-Fluoro-6-(2-(hydroxymethyl)-1-methyl-1H-imidazol-4-yl)-4-isopropyl-2-(o- tolyl)isoquinolin-1(2H)-one.::WO2022070068, Example 8

> <Curation/DataSource>
Curated from the literature by BindingDB

> <Article DOI>
?

> <PMID>
WO2022070068

> <Patent Number>
?

> <Authors>
Lindsey, D; Scott, K; Zhuming, Z

> <Link to Ligand in BindingDB>
http://www.bindingdb.org/bind/chemsearch/marvin/MolStructure.jsp?monomerid=530436

> <Link to Ligand-Target Pair in BindingDB>
http://www.bindingdb.org/jsp/dbsearch/PrimarySearch_ki.jsp?energyterm=kJ/mole&tag=r21&monomerid=530436&enzyme=Dihydroorotate+dehydrogenase&column=ki&startPg=0&Increment=50&submit=Search

> <PubChem CID>
?

> <PubChem SID>
?

$$$$

  Mrv2115 07222212352D          

 25 28  0  0  0  0            999 V2000
   -0.1712   -0.6979    0.0000 C   0  0  0  0  0  0  0  0  0  0  0  0
    0.6538   -0.6979    0.0000 C   0  0  0  0  0  0  0  0  0  0  0  0
    1.1387   -0.0305    0.0000 N   0  0  0  0  0  0  0  0  0  0  0  0
    1.9233   -0.2854    0.0000 C   0  0  0  0  0  0  0  0  0  0  0  0
    2.6378    0.1271    0.0000 C   0  0  0  0  0  0  0  0  0  0  0  0
    2.6378    0.9521    0.0000 O   0  0  0  0  0  0  0  0  0  0  0  0
    3.3523    1.3646    0.0000 C   0  0  0  0  0  0  0  0  0  0  0  0
    3.3523    2.1896    0.0000 F   0  0  0  0  0  0  0  0  0  0  0  0
    4.0668    0.9521    0.0000 F   0  0  0  0  0  0  0  0  0  0  0  0
    3.3523   -0.2854    0.0000 C   0  0  0  0  0  0  0  0  0  0  0  0
    3.3523   -1.1104    0.0000 C   0  0  0  0  0  0  0  0  0  0  0  0
    2.6378   -1.5229    0.0000 C   0  0  0  0  0  0  0  0  0  0  0  0
    1.9233   -1.1104    0.0000 C   0  0  0  0  0  0  0  0  0  0  0  0
    1.1387   -1.3654    0.0000 N   0  0  0  0  0  0  0  0  0  0  0  0
    0.8838   -2.1500    0.0000 C   0  0  0  0  0  0  0  0  0  0  0  0
    1.3687   -2.8174    0.0000 C   0  0  0  0  0  0  0  0  0  0  0  0
    0.8838   -3.4849    0.0000 C   0  0  0  0  0  0  0  0  0  0  0  0
    0.0992   -3.2299    0.0000 C   0  0  0  0  0  0  0  0  0  0  0  0
   -0.5683   -3.7149    0.0000 C   0  0  0  0  0  0  0  0  0  0  0  0
   -1.3220   -3.3793    0.0000 O   0  0  0  0  0  0  0  0  0  0  0  0
   -0.4820   -4.5353    0.0000 N   0  0  0  0  0  0  0  0  0  0  0  0
   -1.1495   -5.0203    0.0000 C   0  0  0  0  0  0  0  0  0  0  0  0
   -1.4850   -5.7739    0.0000 C   0  0  0  0  0  0  0  0  0  0  0  0
   -1.9700   -5.1065    0.0000 C   0  0  0  0  0  0  0  0  0  0  0  0
    0.0992   -2.4049    0.0000 S   0  0  0  0  0  0  0  0  0  0  0  0
  1  2  1  0  0  0  0
  2  3  4  0  0  0  0
  3  4  4  0  0  0  0
  4  5  4  0  0  0  0
  5  6  1  0  0  0  0
  6  7  1  0  0  0  0
  7  8  1  0  0  0  0
  7  9  1  0  0  0  0
  5 10  4  0  0  0  0
 10 11  4  0  0  0  0
 11 12  4  0  0  0  0
 12 13  4  0  0  0  0
  4 13  4  0  0  0  0
 13 14  4  0  0  0  0
  2 14  4  0  0  0  0
 14 15  1  0  0  0  0
 15 16  4  0  0  0  0
 16 17  4  0  0  0  0
 17 18  4  0  0  0  0
 18 19  1  0  0  0  0
 19 20  2  0  0  0  0
 19 21  1  0  0  0  0
 21 22  1  0  0  0  0
 22 23  1  0  0  0  0
 23 24  1  0  0  0  0
 22 24  1  0  0  0  0
 18 25  4  0  0  0  0
 15 25  4  0  0  0  0
M  END
> <IC50(uM)>
30.0

> <Outcome>
0.0

> <BindingDB ID>
50924668

> <BindingDB MonomerID>
50379138

> <BindingDB Ligand Name>
CHEMBL2012951

> <Curation/DataSource>
ChEMBL

> <Article DOI>
10.1021/ml200143c

> <PMID>
24900364

> <Patent Number>
?

> <Authors>
Skerlj, RT; Bastos, CM; Booker, ML; Kramer, ML; Barker, RH; Celatka, CA; Munoz, B; Sidhu, AB; Cortese, JF; Wittlin, S; Papastogiannidis, P; Angulo-Barturen, I; Jimenez-Diaz, MB; Sybertz, E

> <Link to Ligand in BindingDB>
http://www.bindingdb.org/bind/chemsearch/marvin/MolStructure.jsp?monomerid=50379138

> <Link to Ligand-Target Pair in BindingDB>
http://www.bindingdb.org/jsp/dbsearch/PrimarySearch_ki.jsp?energyterm=kJ/mole&tag=r21&monomerid=50379138&enzyme=Dihydroorotate+dehydrogenase&column=ki&startPg=0&Increment=50&submit=Search

> <PubChem CID>
70685308

> <PubChem SID>
160858221

$$$$

  Mrv2115 07222212352D          

 33 35  0  0  0  0            999 V2000
    0.7145   -3.7125    0.0000 C   0  0  0  0  0  0  0  0  0  0  0  0
    1.4289   -4.1250    0.0000 C   0  0  0  0  0  0  0  0  0  0  0  0
    1.4289   -4.9500    0.0000 C   0  0  0  0  0  0  0  0  0  0  0  0
    2.0964   -5.4349    0.0000 N   0  0  0  0  0  0  0  0  0  0  0  0
    1.8414   -6.2195    0.0000 N   0  0  0  0  0  0  0  0  0  0  0  0
    2.3264   -6.8870    0.0000 C   0  0  0  0  0  0  0  0  0  0  0  0
    3.1468   -6.8007    0.0000 C   0  0  0  0  0  0  0  0  0  0  0  0
    3.6318   -7.4682    0.0000 C   0  0  0  0  0  0  0  0  0  0  0  0
    3.2962   -8.2219    0.0000 C   0  0  0  0  0  0  0  0  0  0  0  0
    3.7811   -8.8893    0.0000 C   0  0  0  0  0  0  0  0  0  0  0  0
    3.4456   -9.6430    0.0000 O   0  0  0  0  0  0  0  0  0  0  0  0
    4.6016   -8.8031    0.0000 N   0  0  0  0  0  0  0  0  0  0  0  0
    5.0865   -9.4705    0.0000 C   0  0  0  0  0  0  0  0  0  0  0  0
    5.9070   -9.3843    0.0000 C   0  0  0  0  0  0  0  0  0  0  0  0
    6.2426   -8.6306    0.0000 F   0  0  0  0  0  0  0  0  0  0  0  0
    6.3919  -10.0517    0.0000 C   0  0  0  0  0  0  0  0  0  0  0  0
    6.0564  -10.8054    0.0000 C   0  0  0  0  0  0  0  0  0  0  0  0
    5.2359  -10.8916    0.0000 C   0  0  0  0  0  0  0  0  0  0  0  0
    4.7510  -10.2242    0.0000 C   0  0  0  0  0  0  0  0  0  0  0  0
    3.9305  -10.3104    0.0000 F   0  0  0  0  0  0  0  0  0  0  0  0
    2.4757   -8.3081    0.0000 C   0  0  0  0  0  0  0  0  0  0  0  0
    2.1402   -9.0618    0.0000 O   0  0  0  0  0  0  0  0  0  0  0  0
    1.3197   -9.1480    0.0000 C   0  0  0  0  0  0  0  0  0  0  0  0
    0.9841   -9.9017    0.0000 C   0  0  0  0  0  0  0  0  0  0  0  0
    0.8348   -8.4806    0.0000 C   0  0  0  0  0  0  0  0  0  0  0  0
    1.5022   -7.9956    0.0000 F   0  0  0  0  0  0  0  0  0  0  0  0
    0.1673   -8.9655    0.0000 F   0  0  0  0  0  0  0  0  0  0  0  0
    0.3498   -7.8131    0.0000 F   0  0  0  0  0  0  0  0  0  0  0  0
    1.9908   -7.6407    0.0000 C   0  0  0  0  0  0  0  0  0  0  0  0
    1.0164   -6.2195    0.0000 C   0  0  0  0  0  0  0  0  0  0  0  0
    0.5315   -6.8870    0.0000 O   0  0  0  0  0  0  0  0  0  0  0  0
    0.7615   -5.4349    0.0000 N   0  0  0  0  0  0  0  0  0  0  0  0
   -0.0231   -5.1800    0.0000 C   0  0  0  0  0  0  0  0  0  0  0  0
  1  2  1  0  0  0  0
  2  3  1  0  0  0  0
  3  4  4  0  0  0  0
  4  5  4  0  0  0  0
  5  6  1  0  0  0  0
  6  7  4  0  0  0  0
  7  8  4  0  0  0  0
  8  9  4  0  0  0  0
  9 10  1  0  0  0  0
 10 11  2  0  0  0  0
 10 12  1  0  0  0  0
 12 13  1  0  0  0  0
 13 14  4  0  0  0  0
 14 15  1  0  0  0  0
 14 16  4  0  0  0  0
 16 17  4  0  0  0  0
 17 18  4  0  0  0  0
 18 19  4  0  0  0  0
 13 19  4  0  0  0  0
 19 20  1  0  0  0  0
  9 21  4  0  0  0  0
 21 22  1  0  0  0  0
 22 23  1  0  0  0  0
 23 24  1  0  0  0  0
 23 25  1  0  0  0  0
 25 26  1  0  0  0  0
 25 27  1  0  0  0  0
 25 28  1  0  0  0  0
 21 29  4  0  0  0  0
  6 29  4  0  0  0  0
  5 30  4  0  0  0  0
 30 31  2  0  0  0  0
 30 32  4  0  0  0  0
  3 32  4  0  0  0  0
 32 33  1  0  0  0  0
M  END
> <IC50(uM)>
0.022

> <Outcome>
1.0

> <BindingDB ID>
1098758; 972604

> <BindingDB MonomerID>
470483

> <BindingDB Ligand Name>
N-(2,6-difluorophenyl)-4-(3-ethyl-4-methyl-5-oxo-4,5-dihydro-1H-1,2,4-triazol-1-yl)-2-{[(2S)-1,1,1-trifluoropropan-2-yl]oxy}benzamide::US10815215, Example 146::US11130745, Example 146; N-(2,6-difluorophenyl)-4-(3-ethyl-4-methyl-5-oxo-4,5-dihydro-1H-1,2,4-triazol-1-yl)-2-{[(2S)-1,1,1-trifluoropropan-2-yl]oxy}benzamide::US10815215, Example 146

> <Curation/DataSource>
US Patent

> <Article DOI>
?

> <PMID>
?

> <Patent Number>
US11130745; US10815215

> <Authors>
Gradl, SN; Nguyen, D; Eis, K; Gunther, J; Stellfeld, T; Janzer, A; Christian, S; Muller, T; Sheikh, SE; Sykes, DB; Ferrara, SJ; Krober, M; Merz, C; Niehues, M; Schafer, M; Zimmermann, K; Nising, CF; Gradl, SN; Nguyen, D; Eis, K; Gunther, J; Stellfeld, T; Janzer, A; Christian, S; Muller, T; Sheikh, SE; Zhou, HJ; Zhao, C; Sykes, DB; Ferrara, SJ; Liu, K; Krober, M; Merz, C; Niehues, M; Schafer, M; Zimmermann, K; Nising, CF

> <Link to Ligand in BindingDB>
http://www.bindingdb.org/bind/chemsearch/marvin/MolStructure.jsp?monomerid=470483

> <Link to Ligand-Target Pair in BindingDB>
http://www.bindingdb.org/jsp/dbsearch/PrimarySearch_ki.jsp?energyterm=kJ/mole&tag=r21&monomerid=470483&enzyme=Dihydroorotate+dehydrogenase&column=ki&startPg=0&Increment=50&submit=Search

> <PubChem CID>
134469870

> <PubChem SID>
441609660

$$$$

  Mrv2115 07222212352D          

 25 27  0  0  0  0            999 V2000
    1.8907   -0.0517    0.0000 C   0  0  0  0  0  0  0  0  0  0  0  0
    2.0622    0.7553    0.0000 C   0  0  0  0  0  0  0  0  0  0  0  0
    2.8468    1.0102    0.0000 O   0  0  0  0  0  0  0  0  0  0  0  0
    3.0183    1.8172    0.0000 C   0  0  0  0  0  0  0  0  0  0  0  0
    2.4052    2.3692    0.0000 O   0  0  0  0  0  0  0  0  0  0  0  0
    3.8030    2.0721    0.0000 C   0  0  0  0  0  0  0  0  0  0  0  0
    4.0579    2.8568    0.0000 S   0  0  0  0  0  0  0  0  0  0  0  0
    4.8829    2.8568    0.0000 C   0  0  0  0  0  0  0  0  0  0  0  0
    5.3678    3.5242    0.0000 N   0  0  0  0  0  0  0  0  0  0  0  0
    6.1883    3.4380    0.0000 C   0  0  0  0  0  0  0  0  0  0  0  0
    6.6732    4.1054    0.0000 C   0  0  0  0  0  0  0  0  0  0  0  0
    7.4937    4.0192    0.0000 C   0  0  0  0  0  0  0  0  0  0  0  0
    7.8293    3.2655    0.0000 C   0  0  0  0  0  0  0  0  0  0  0  0
    8.6497    3.1793    0.0000 C   0  0  0  0  0  0  0  0  0  0  0  0
    7.3443    2.5980    0.0000 C   0  0  0  0  0  0  0  0  0  0  0  0
    7.6799    1.8444    0.0000 C   0  0  0  0  0  0  0  0  0  0  0  0
    6.5239    2.6843    0.0000 C   0  0  0  0  0  0  0  0  0  0  0  0
    5.1378    2.0721    0.0000 N   0  0  0  0  0  0  0  0  0  0  0  0
    4.4704    1.5872    0.0000 C   0  0  0  0  0  0  0  0  0  0  0  0
    4.4704    0.7622    0.0000 N   0  0  0  0  0  0  0  0  0  0  0  0
    5.1849    0.3497    0.0000 C   0  0  0  0  0  0  0  0  0  0  0  0
    5.8993    0.7622    0.0000 O   0  0  0  0  0  0  0  0  0  0  0  0
    5.1849   -0.4753    0.0000 C   0  0  0  0  0  0  0  0  0  0  0  0
    5.5974   -1.1898    0.0000 C   0  0  0  0  0  0  0  0  0  0  0  0
    4.7724   -1.1898    0.0000 C   0  0  0  0  0  0  0  0  0  0  0  0
  1  2  1  0  0  0  0
  2  3  1  0  0  0  0
  3  4  1  0  0  0  0
  4  5  2  0  0  0  0
  4  6  1  0  0  0  0
  6  7  4  0  0  0  0
  7  8  4  0  0  0  0
  8  9  1  0  0  0  0
  9 10  1  0  0  0  0
 10 11  4  0  0  0  0
 11 12  4  0  0  0  0
 12 13  4  0  0  0  0
 13 14  1  0  0  0  0
 13 15  4  0  0  0  0
 15 16  1  0  0  0  0
 15 17  4  0  0  0  0
 10 17  4  0  0  0  0
  8 18  4  0  0  0  0
 18 19  4  0  0  0  0
  6 19  4  0  0  0  0
 19 20  1  0  0  0  0
 20 21  1  0  0  0  0
 21 22  2  0  0  0  0
 21 23  1  0  0  0  0
 23 24  1  0  0  0  0
 24 25  1  0  0  0  0
 23 25  1  0  0  0  0
M  END
> <IC50(uM)>
10.0

> <Outcome>
0.0

> <BindingDB ID>
50312467

> <BindingDB MonomerID>
50071757

> <BindingDB Ligand Name>
CHEMBL3410584

> <Curation/DataSource>
ChEMBL

> <Article DOI>
10.1021/jm501127s

> <PMID>
25580811

> <Patent Number>
?

> <Authors>
Zhu, J; Han, L; Diao, Y; Ren, X; Xu, M; Xu, L; Li, S; Li, Q; Dong, D; Huang, J; Liu, X; Zhao, Z; Wang, R; Zhu, L; Xu, Y; Qian, X; Li, H

> <Link to Ligand in BindingDB>
http://www.bindingdb.org/bind/chemsearch/marvin/MolStructure.jsp?monomerid=50071757

> <Link to Ligand-Target Pair in BindingDB>
http://www.bindingdb.org/jsp/dbsearch/PrimarySearch_ki.jsp?energyterm=kJ/mole&tag=r21&monomerid=50071757&enzyme=Dihydroorotate+dehydrogenase&column=ki&startPg=0&Increment=50&submit=Search

> <PubChem CID>
118732500

> <PubChem SID>
103965467

$$$$

  Mrv2115 07222212352D          

 27 29  0  0  0  0            999 V2000
    7.8592    1.2375    0.0000 O   0  0  0  0  0  0  0  0  0  0  0  0
    7.8592    0.4125    0.0000 C   0  0  0  0  0  0  0  0  0  0  0  0
    7.1447    0.0000    0.0000 C   0  0  0  0  0  0  0  0  0  0  0  0
    6.4302    0.4125    0.0000 N   0  0  0  0  0  0  0  0  0  0  0  0
    5.7158    0.0000    0.0000 C   0  0  0  0  0  0  0  0  0  0  0  0
    5.7158   -0.8250    0.0000 O   0  0  0  0  0  0  0  0  0  0  0  0
    5.0013    0.4125    0.0000 C   0  0  0  0  0  0  0  0  0  0  0  0
    4.2868    0.0000    0.0000 C   0  0  0  0  0  0  0  0  0  0  0  0
    3.5724    0.4125    0.0000 C   0  0  0  0  0  0  0  0  0  0  0  0
    3.5724    1.2375    0.0000 C   0  0  0  0  0  0  0  0  0  0  0  0
    2.8579    1.6500    0.0000 C   0  0  0  0  0  0  0  0  0  0  0  0
    2.1434    2.0625    0.0000 F   0  0  0  0  0  0  0  0  0  0  0  0
    2.4454    0.9355    0.0000 F   0  0  0  0  0  0  0  0  0  0  0  0
    3.2704    2.3645    0.0000 F   0  0  0  0  0  0  0  0  0  0  0  0
    4.2868    1.6500    0.0000 C   0  0  0  0  0  0  0  0  0  0  0  0
    5.0013    1.2375    0.0000 C   0  0  0  0  0  0  0  0  0  0  0  0
    8.5737    0.0000    0.0000 N   0  0  0  0  0  0  0  0  0  0  0  0
    9.2881    0.4125    0.0000 C   0  0  0  0  0  0  0  0  0  0  0  0
    9.2881    1.2375    0.0000 C   0  0  0  0  0  0  0  0  0  0  0  0
   10.0026    1.6500    0.0000 C   0  0  0  0  0  0  0  0  0  0  0  0
   10.7171    1.2375    0.0000 C   0  0  0  0  0  0  0  0  0  0  0  0
   10.7171    0.4125    0.0000 C   0  0  0  0  0  0  0  0  0  0  0  0
   11.4315    0.0000    0.0000 C   0  0  0  0  0  0  0  0  0  0  0  0
   11.4315   -0.8250    0.0000 C   0  0  0  0  0  0  0  0  0  0  0  0
   10.7171   -1.2375    0.0000 C   0  0  0  0  0  0  0  0  0  0  0  0
   10.0026   -0.8250    0.0000 C   0  0  0  0  0  0  0  0  0  0  0  0
   10.0026    0.0000    0.0000 C   0  0  0  0  0  0  0  0  0  0  0  0
  1  2  2  0  0  0  0
  2  3  1  0  0  0  0
  3  4  1  0  0  0  0
  4  5  1  0  0  0  0
  5  6  2  0  0  0  0
  5  7  1  0  0  0  0
  7  8  4  0  0  0  0
  8  9  4  0  0  0  0
  9 10  4  0  0  0  0
 10 11  1  0  0  0  0
 11 12  1  0  0  0  0
 11 13  1  0  0  0  0
 11 14  1  0  0  0  0
 10 15  4  0  0  0  0
 15 16  4  0  0  0  0
  7 16  4  0  0  0  0
  2 17  1  0  0  0  0
 17 18  1  0  0  0  0
 18 19  1  0  0  0  0
 19 20  1  0  0  0  0
 20 21  1  0  0  0  0
 21 22  1  0  0  0  0
 22 23  4  0  0  0  0
 23 24  4  0  0  0  0
 24 25  4  0  0  0  0
 25 26  4  0  0  0  0
 26 27  4  0  0  0  0
 22 27  4  0  0  0  0
 18 27  1  0  0  0  0
M  END
> <IC50(uM)>
20.0

> <Outcome>
0.0

> <BindingDB ID>
50527786

> <BindingDB MonomerID>
50201630

> <BindingDB Ligand Name>
CHEMBL3910911

> <Curation/DataSource>
ChEMBL

> <Article DOI>
10.1021/acsmedchemlett.6b00316

> <PMID>
27994748

> <Patent Number>
?

> <Authors>
Lewis, TA; Sykes, DB; Law, JM; Mu??oz, B; Rustiguel, JK; Nonato, MC; Scadden, DT; Schreiber, SL

> <Link to Ligand in BindingDB>
http://www.bindingdb.org/bind/chemsearch/marvin/MolStructure.jsp?monomerid=50201630

> <Link to Ligand-Target Pair in BindingDB>
http://www.bindingdb.org/jsp/dbsearch/PrimarySearch_ki.jsp?energyterm=kJ/mole&tag=r21&monomerid=50201630&enzyme=Dihydroorotate+dehydrogenase&column=ki&startPg=0&Increment=50&submit=Search

> <PubChem CID>
9045495

> <PubChem SID>
375979418

$$$$

  Mrv2115 07222212352D          

 18 20  0  0  0  0            999 V2000
    4.0668    2.3479    0.0000 C   0  0  0  0  0  0  0  0  0  0  0  0
    3.3523    1.9354    0.0000 C   0  0  0  0  0  0  0  0  0  0  0  0
    3.3523    1.1104    0.0000 C   0  0  0  0  0  0  0  0  0  0  0  0
    2.6378    0.6979    0.0000 C   0  0  0  0  0  0  0  0  0  0  0  0
    2.6378   -0.1271    0.0000 N   0  0  0  0  0  0  0  0  0  0  0  0
    1.9233   -0.5396    0.0000 C   0  0  0  0  0  0  0  0  0  0  0  0
    1.9233   -1.3646    0.0000 C   0  0  0  0  0  0  0  0  0  0  0  0
    1.2089   -1.7771    0.0000 C   0  0  0  0  0  0  0  0  0  0  0  0
    0.4944   -1.3646    0.0000 C   0  0  0  0  0  0  0  0  0  0  0  0
   -0.2201   -1.7771    0.0000 Br  0  0  0  0  0  0  0  0  0  0  0  0
    0.4944   -0.5396    0.0000 C   0  0  0  0  0  0  0  0  0  0  0  0
    1.2089   -0.1271    0.0000 C   0  0  0  0  0  0  0  0  0  0  0  0
    1.9233    1.1104    0.0000 N   0  0  0  0  0  0  0  0  0  0  0  0
    1.1387    0.8555    0.0000 N   0  0  0  0  0  0  0  0  0  0  0  0
    0.6538    1.5229    0.0000 C   0  0  0  0  0  0  0  0  0  0  0  0
    1.1387    2.1904    0.0000 N   0  0  0  0  0  0  0  0  0  0  0  0
    1.9233    1.9354    0.0000 C   0  0  0  0  0  0  0  0  0  0  0  0
    2.6378    2.3479    0.0000 N   0  0  0  0  0  0  0  0  0  0  0  0
  1  2  1  0  0  0  0
  2  3  4  0  0  0  0
  3  4  4  0  0  0  0
  4  5  1  0  0  0  0
  5  6  1  0  0  0  0
  6  7  4  0  0  0  0
  7  8  4  0  0  0  0
  8  9  4  0  0  0  0
  9 10  1  0  0  0  0
  9 11  4  0  0  0  0
 11 12  4  0  0  0  0
  6 12  4  0  0  0  0
  4 13  4  0  0  0  0
 13 14  4  0  0  0  0
 14 15  4  0  0  0  0
 15 16  4  0  0  0  0
 16 17  4  0  0  0  0
 13 17  4  0  0  0  0
 17 18  4  0  0  0  0
  2 18  4  0  0  0  0
M  END
> <IC50(uM)>
100.0

> <Outcome>
0.0

> <BindingDB ID>
52447

> <BindingDB MonomerID>
28815

> <BindingDB Ligand Name>
N-(4-bromophenyl)-5-methyl-[1,2,4]triazolo[1,5-a]pyrimidin-7-amine::triazolopyrimidine-based compound, DSM98

> <Curation/DataSource>
Curated from the literature by BindingDB

> <Article DOI>
10.1021/jm801343r

> <PMID>
19296651

> <Patent Number>
?

> <Authors>
Gujjar, R; Marwaha, A; El Mazouni, F; White, J; White, KL; Creason, S; Shackleford, DM; Baldwin, J; Charman, WN; Buckner, FS; Charman, S; Rathod, PK; Phillips, MA

> <Link to Ligand in BindingDB>
http://www.bindingdb.org/bind/chemsearch/marvin/MolStructure.jsp?monomerid=28815

> <Link to Ligand-Target Pair in BindingDB>
http://www.bindingdb.org/jsp/dbsearch/PrimarySearch_ki.jsp?energyterm=kJ/mole&tag=r21&monomerid=28815&enzyme=Dihydroorotate+Dehydrogenase+%28DHODH%29&column=ki&startPg=0&Increment=50&submit=Search

> <PubChem CID>
517728

> <PubChem SID>
58098003

$$$$

  Mrv2115 07222212352D          

 35 38  0  0  0  0            999 V2000
   -3.1034    2.1599    0.0000 C   0  0  0  0  0  0  0  0  0  0  0  0
   -2.6909    1.4455    0.0000 C   0  0  0  0  0  0  0  0  0  0  0  0
   -3.1034    0.7310    0.0000 O   0  0  0  0  0  0  0  0  0  0  0  0
   -2.6909    0.0165    0.0000 C   0  0  0  0  0  0  0  0  0  0  0  0
   -1.8659    0.0165    0.0000 C   0  0  0  0  0  0  0  0  0  0  0  0
   -1.4534   -0.6979    0.0000 C   0  0  0  0  0  0  0  0  0  0  0  0
   -0.6284   -0.6979    0.0000 N   0  0  0  0  0  0  0  0  0  0  0  0
   -0.1435   -1.3654    0.0000 N   0  0  0  0  0  0  0  0  0  0  0  0
    0.6411   -1.1104    0.0000 C   0  0  0  0  0  0  0  0  0  0  0  0
    0.6411   -0.2854    0.0000 N   0  0  0  0  0  0  0  0  0  0  0  0
   -0.1435   -0.0305    0.0000 C   0  0  0  0  0  0  0  0  0  0  0  0
   -0.3984    0.7541    0.0000 O   0  0  0  0  0  0  0  0  0  0  0  0
    1.3556    0.1271    0.0000 C   0  0  0  0  0  0  0  0  0  0  0  0
    2.0701   -0.2854    0.0000 C   0  0  0  0  0  0  0  0  0  0  0  0
    2.0701   -1.1104    0.0000 C   0  0  0  0  0  0  0  0  0  0  0  0
    1.3556   -1.5229    0.0000 C   0  0  0  0  0  0  0  0  0  0  0  0
   -1.8659   -1.4124    0.0000 C   0  0  0  0  0  0  0  0  0  0  0  0
   -1.4534   -2.1269    0.0000 F   0  0  0  0  0  0  0  0  0  0  0  0
   -2.6909   -1.4124    0.0000 C   0  0  0  0  0  0  0  0  0  0  0  0
   -3.1034   -0.6979    0.0000 C   0  0  0  0  0  0  0  0  0  0  0  0
   -3.9284   -0.6979    0.0000 C   0  0  0  0  0  0  0  0  0  0  0  0
   -4.3409    0.0165    0.0000 O   0  0  0  0  0  0  0  0  0  0  0  0
   -4.3409   -1.4124    0.0000 N   0  0  0  0  0  0  0  0  0  0  0  0
   -5.1659   -1.4124    0.0000 C   0  0  0  0  0  0  0  0  0  0  0  0
   -5.5784   -2.1269    0.0000 C   0  0  0  0  0  0  0  0  0  0  0  0
   -6.4034   -2.1269    0.0000 C   0  0  0  0  0  0  0  0  0  0  0  0
   -6.8159   -1.4124    0.0000 C   0  0  0  0  0  0  0  0  0  0  0  0
   -7.6409   -1.4124    0.0000 F   0  0  0  0  0  0  0  0  0  0  0  0
   -6.4034   -0.6979    0.0000 C   0  0  0  0  0  0  0  0  0  0  0  0
   -5.5784   -0.6979    0.0000 C   0  0  0  0  0  0  0  0  0  0  0  0
   -5.1659    0.0165    0.0000 Cl  0  0  0  0  0  0  0  0  0  0  0  0
   -1.8659    1.4455    0.0000 C   0  0  0  0  0  0  0  0  0  0  0  0
   -1.8659    0.6205    0.0000 F   0  0  0  0  0  0  0  0  0  0  0  0
   -1.8659    2.2705    0.0000 F   0  0  0  0  0  0  0  0  0  0  0  0
   -1.0409    1.4455    0.0000 F   0  0  0  0  0  0  0  0  0  0  0  0
  1  2  1  0  0  0  0
  2  3  1  0  0  0  0
  3  4  1  0  0  0  0
  4  5  4  0  0  0  0
  5  6  4  0  0  0  0
  6  7  1  0  0  0  0
  7  8  4  0  0  0  0
  8  9  4  0  0  0  0
  9 10  4  0  0  0  0
 10 11  4  0  0  0  0
  7 11  4  0  0  0  0
 11 12  2  0  0  0  0
 10 13  1  0  0  0  0
 13 14  1  0  0  0  0
 14 15  1  0  0  0  0
 15 16  1  0  0  0  0
  9 16  1  0  0  0  0
  6 17  4  0  0  0  0
 17 18  1  0  0  0  0
 17 19  4  0  0  0  0
 19 20  4  0  0  0  0
  4 20  4  0  0  0  0
 20 21  1  0  0  0  0
 21 22  2  0  0  0  0
 21 23  1  0  0  0  0
 23 24  1  0  0  0  0
 24 25  4  0  0  0  0
 25 26  4  0  0  0  0
 26 27  4  0  0  0  0
 27 28  1  0  0  0  0
 27 29  4  0  0  0  0
 29 30  4  0  0  0  0
 24 30  4  0  0  0  0
 30 31  1  0  0  0  0
  2 32  1  0  0  0  0
 32 33  1  0  0  0  0
 32 34  1  0  0  0  0
 32 35  1  0  0  0  0
M  END
> <IC50(uM)>
0.04

> <Outcome>
1.0

> <BindingDB ID>
1020417

> <BindingDB MonomerID>
490368

> <BindingDB Ligand Name>
N-(2-chloro-4-fluorophenyl)-5-fluoro-4-(3-oxo-5,6,7,8-tetrahydro[1,2,4]triazolo[4,3-a]pyridin-2(3H)-yl)-2-{[(2S)-1,1,1-trifluoropropan-2-yl]oxy}benzamide::US10968216, Example 36

> <Curation/DataSource>
US Patent

> <Article DOI>
?

> <PMID>
?

> <Patent Number>
US10968216

> <Authors>
Gradl, SN; Nguyen, D; Eis, K; Gunther, J; Stellfeld, T; Janzer, A; Christian, S; Mueller, T; Sheikh, SE; Zhou, HJ; Zhao, C; Sykes, DB; Ferrara, SJ; Liu, K; Herbert, SA; Merz, C; Niehues, M; Nising, CF; Schafer, M; Zimmermann, K; Knablein, J; Thede, K; Faupel, T

> <Link to Ligand in BindingDB>
http://www.bindingdb.org/bind/chemsearch/marvin/MolStructure.jsp?monomerid=490368

> <Link to Ligand-Target Pair in BindingDB>
http://www.bindingdb.org/jsp/dbsearch/PrimarySearch_ki.jsp?energyterm=kJ/mole&tag=r21&monomerid=490368&enzyme=Dihydroorotate+dehydrogenase&column=ki&startPg=0&Increment=50&submit=Search

> <PubChem CID>
134474295

> <PubChem SID>
447117095

$$$$

  Mrv2115 07222212352D          

 24 26  0  0  0  0            999 V2000
    0.0000   -2.4750    0.0000 O   0  0  0  0  0  0  0  0  0  0  0  0
    0.7145   -2.8875    0.0000 C   0  0  0  0  0  0  0  0  0  0  0  0
    0.7145   -3.7125    0.0000 N   0  0  0  0  0  0  0  0  0  0  0  0
    0.0000   -4.1250    0.0000 C   0  0  0  0  0  0  0  0  0  0  0  0
   -0.7145   -3.7125    0.0000 C   0  0  0  0  0  0  0  0  0  0  0  0
   -1.4289   -4.1250    0.0000 C   0  0  0  0  0  0  0  0  0  0  0  0
   -1.4289   -4.9500    0.0000 C   0  0  0  0  0  0  0  0  0  0  0  0
   -0.7145   -5.3625    0.0000 C   0  0  0  0  0  0  0  0  0  0  0  0
    0.0000   -4.9500    0.0000 C   0  0  0  0  0  0  0  0  0  0  0  0
    0.7145   -5.3625    0.0000 C   0  0  0  0  0  0  0  0  0  0  0  0
    1.4289   -5.7750    0.0000 F   0  0  0  0  0  0  0  0  0  0  0  0
    0.3020   -6.0770    0.0000 F   0  0  0  0  0  0  0  0  0  0  0  0
    1.1270   -4.6480    0.0000 F   0  0  0  0  0  0  0  0  0  0  0  0
    1.4289   -2.4750    0.0000 N   0  0  0  0  0  0  0  0  0  0  0  0
    1.4289   -1.6500    0.0000 C   0  0  0  0  0  0  0  0  0  0  0  0
    0.7145   -1.2375    0.0000 C   0  0  0  0  0  0  0  0  0  0  0  0
    0.7145   -0.4125    0.0000 C   0  0  0  0  0  0  0  0  0  0  0  0
    1.4289    0.0000    0.0000 C   0  0  0  0  0  0  0  0  0  0  0  0
    2.1434   -0.4125    0.0000 C   0  0  0  0  0  0  0  0  0  0  0  0
    2.8579    0.0000    0.0000 C   0  0  0  0  0  0  0  0  0  0  0  0
    3.5724   -0.4125    0.0000 C   0  0  0  0  0  0  0  0  0  0  0  0
    3.5724   -1.2375    0.0000 C   0  0  0  0  0  0  0  0  0  0  0  0
    2.8579   -1.6500    0.0000 C   0  0  0  0  0  0  0  0  0  0  0  0
    2.1434   -1.2375    0.0000 C   0  0  0  0  0  0  0  0  0  0  0  0
  1  2  2  0  0  0  0
  2  3  1  0  0  0  0
  3  4  1  0  0  0  0
  4  5  4  0  0  0  0
  5  6  4  0  0  0  0
  6  7  4  0  0  0  0
  7  8  4  0  0  0  0
  8  9  4  0  0  0  0
  4  9  4  0  0  0  0
  9 10  1  0  0  0  0
 10 11  1  0  0  0  0
 10 12  1  0  0  0  0
 10 13  1  0  0  0  0
  2 14  1  0  0  0  0
 14 15  1  0  0  0  0
 15 16  4  0  0  0  0
 16 17  4  0  0  0  0
 17 18  4  0  0  0  0
 18 19  4  0  0  0  0
 19 20  4  0  0  0  0
 20 21  4  0  0  0  0
 21 22  4  0  0  0  0
 22 23  4  0  0  0  0
 23 24  4  0  0  0  0
 15 24  4  0  0  0  0
 19 24  4  0  0  0  0
M  END
> <IC50(uM)>
1000.0

> <Outcome>
0.0

> <BindingDB ID>
28104

> <BindingDB MonomerID>
15356

> <BindingDB Ligand Name>
1-naphthalen-1-yl-3-[2-(trifluoromethyl)phenyl]urea::SPECS compound no. 11

> <Curation/DataSource>
Curated from the literature by BindingDB

> <Article DOI>
10.1074/jbc.M501100200

> <PMID>
15795226

> <Patent Number>
?

> <Authors>
Baldwin, J; Michnoff, CH; Malmquist, NA; White, J; Roth, MG; Rathod, PK; Phillips, MA

> <Link to Ligand in BindingDB>
http://www.bindingdb.org/bind/chemsearch/marvin/MolStructure.jsp?monomerid=15356

> <Link to Ligand-Target Pair in BindingDB>
http://www.bindingdb.org/jsp/dbsearch/PrimarySearch_ki.jsp?energyterm=kJ/mole&tag=r21&monomerid=15356&enzyme=Dihydroorotate+Dehydrogenase+%28DHODH%29&column=ki&startPg=0&Increment=50&submit=Search

> <PubChem CID>
292798

> <PubChem SID>
46515656

$$$$

  Mrv2115 07222212352D          

 35 37  0  0  0  0            999 V2000
    4.2868   -2.4750    0.0000 C   0  0  0  0  0  0  0  0  0  0  0  0
    3.5724   -2.8875    0.0000 C   0  0  0  0  0  0  0  0  0  0  0  0
    2.8579   -2.4750    0.0000 O   0  0  0  0  0  0  0  0  0  0  0  0
    2.1434   -2.8875    0.0000 C   0  0  0  0  0  0  0  0  0  0  0  0
    2.1434   -3.7125    0.0000 C   0  0  0  0  0  0  0  0  0  0  0  0
    1.4289   -4.1250    0.0000 C   0  0  0  0  0  0  0  0  0  0  0  0
    1.4289   -4.9500    0.0000 N   0  0  0  0  0  0  0  0  0  0  0  0
    2.0964   -5.4349    0.0000 N   0  0  0  0  0  0  0  0  0  0  0  0
    1.8414   -6.2195    0.0000 C   0  0  0  0  0  0  0  0  0  0  0  0
    2.3264   -6.8870    0.0000 C   0  0  0  0  0  0  0  0  0  0  0  0
    1.9908   -7.6407    0.0000 O   0  0  0  0  0  0  0  0  0  0  0  0
    3.1468   -6.8007    0.0000 O   0  0  0  0  0  0  0  0  0  0  0  0
    1.0164   -6.2195    0.0000 N   0  0  0  0  0  0  0  0  0  0  0  0
    0.5315   -6.8870    0.0000 C   0  0  0  0  0  0  0  0  0  0  0  0
    0.7615   -5.4349    0.0000 C   0  0  0  0  0  0  0  0  0  0  0  0
   -0.0231   -5.1800    0.0000 O   0  0  0  0  0  0  0  0  0  0  0  0
    0.7145   -3.7125    0.0000 C   0  0  0  0  0  0  0  0  0  0  0  0
    0.0000   -4.1250    0.0000 F   0  0  0  0  0  0  0  0  0  0  0  0
    0.7145   -2.8875    0.0000 C   0  0  0  0  0  0  0  0  0  0  0  0
    1.4289   -2.4750    0.0000 C   0  0  0  0  0  0  0  0  0  0  0  0
    1.4289   -1.6500    0.0000 C   0  0  0  0  0  0  0  0  0  0  0  0
    2.1434   -1.2375    0.0000 O   0  0  0  0  0  0  0  0  0  0  0  0
    0.7145   -1.2375    0.0000 N   0  0  0  0  0  0  0  0  0  0  0  0
    0.7145   -0.4125    0.0000 C   0  0  0  0  0  0  0  0  0  0  0  0
    0.0000    0.0000    0.0000 C   0  0  0  0  0  0  0  0  0  0  0  0
   -0.7145   -0.4125    0.0000 F   0  0  0  0  0  0  0  0  0  0  0  0
    0.0000    0.8250    0.0000 C   0  0  0  0  0  0  0  0  0  0  0  0
    0.7145    1.2375    0.0000 C   0  0  0  0  0  0  0  0  0  0  0  0
    1.4289    0.8250    0.0000 C   0  0  0  0  0  0  0  0  0  0  0  0
    1.4289    0.0000    0.0000 C   0  0  0  0  0  0  0  0  0  0  0  0
    2.1434   -0.4125    0.0000 F   0  0  0  0  0  0  0  0  0  0  0  0
    3.5724   -3.7125    0.0000 C   0  0  0  0  0  0  0  0  0  0  0  0
    2.7474   -3.7125    0.0000 F   0  0  0  0  0  0  0  0  0  0  0  0
    4.3974   -3.7125    0.0000 F   0  0  0  0  0  0  0  0  0  0  0  0
    3.5724   -4.5375    0.0000 F   0  0  0  0  0  0  0  0  0  0  0  0
  1  2  1  0  0  0  0
  2  3  1  0  0  0  0
  3  4  1  0  0  0  0
  4  5  4  0  0  0  0
  5  6  4  0  0  0  0
  6  7  1  0  0  0  0
  7  8  4  0  0  0  0
  8  9  4  0  0  0  0
  9 10  1  0  0  0  0
 10 11  2  0  0  0  0
 10 12  1  0  0  0  0
  9 13  4  0  0  0  0
 13 14  1  0  0  0  0
 13 15  4  0  0  0  0
  7 15  4  0  0  0  0
 15 16  2  0  0  0  0
  6 17  4  0  0  0  0
 17 18  1  0  0  0  0
 17 19  4  0  0  0  0
 19 20  4  0  0  0  0
  4 20  4  0  0  0  0
 20 21  1  0  0  0  0
 21 22  2  0  0  0  0
 21 23  1  0  0  0  0
 23 24  1  0  0  0  0
 24 25  4  0  0  0  0
 25 26  1  0  0  0  0
 25 27  4  0  0  0  0
 27 28  4  0  0  0  0
 28 29  4  0  0  0  0
 29 30  4  0  0  0  0
 24 30  4  0  0  0  0
 30 31  1  0  0  0  0
  2 32  1  0  0  0  0
 32 33  1  0  0  0  0
 32 34  1  0  0  0  0
 32 35  1  0  0  0  0
M  END
> <IC50(uM)>
0.04

> <Outcome>
1.0

> <BindingDB ID>
1098836; 972682

> <BindingDB MonomerID>
470560

> <BindingDB Ligand Name>
1-(4-[(2,6-difluorophenyl)carbamoyl]-2-fluoro-5-{[(2S)-1,1,1-trifluoropropan-2-yl]oxy}phenyl)-4-methyl-5-oxo-4,5-dihydro-1H-1,2,4-triazole-3-carboxylic acid::US10815215, Example 220::US11130745, Example 220; 1-(4-[(2,6-difluorophenyl)carbamoyl]-2-fluoro-5-{[(2S)-1,1,1-trifluoropropan-2-yl]oxy}phenyl)-4-methyl-5-oxo-4,5-dihydro-1H-1,2,4-triazole-3-carboxylic acid::US10815215, Example 220

> <Curation/DataSource>
US Patent

> <Article DOI>
?

> <PMID>
?

> <Patent Number>
US11130745; US10815215

> <Authors>
Gradl, SN; Nguyen, D; Eis, K; Gunther, J; Stellfeld, T; Janzer, A; Christian, S; Muller, T; Sheikh, SE; Sykes, DB; Ferrara, SJ; Krober, M; Merz, C; Niehues, M; Schafer, M; Zimmermann, K; Nising, CF; Gradl, SN; Nguyen, D; Eis, K; Gunther, J; Stellfeld, T; Janzer, A; Christian, S; Muller, T; Sheikh, SE; Zhou, HJ; Zhao, C; Sykes, DB; Ferrara, SJ; Liu, K; Krober, M; Merz, C; Niehues, M; Schafer, M; Zimmermann, K; Nising, CF

> <Link to Ligand in BindingDB>
http://www.bindingdb.org/bind/chemsearch/marvin/MolStructure.jsp?monomerid=470560

> <Link to Ligand-Target Pair in BindingDB>
http://www.bindingdb.org/jsp/dbsearch/PrimarySearch_ki.jsp?energyterm=kJ/mole&tag=r21&monomerid=470560&enzyme=Dihydroorotate+dehydrogenase&column=ki&startPg=0&Increment=50&submit=Search

> <PubChem CID>
134470195

> <PubChem SID>
441609736

$$$$

  Mrv2115 07222212352D          

 30 32  0  0  0  0            999 V2000
    0.7145   -3.7125    0.0000 O   0  0  0  0  0  0  0  0  0  0  0  0
    1.4289   -4.1250    0.0000 C   0  0  0  0  0  0  0  0  0  0  0  0
    2.1434   -3.7125    0.0000 O   0  0  0  0  0  0  0  0  0  0  0  0
    1.4289   -4.9500    0.0000 C   0  0  0  0  0  0  0  0  0  0  0  0
    2.0964   -5.4349    0.0000 C   0  0  0  0  0  0  0  0  0  0  0  0
    2.8810   -5.1800    0.0000 C   0  0  0  0  0  0  0  0  0  0  0  0
    3.4941   -5.7320    0.0000 O   0  0  0  0  0  0  0  0  0  0  0  0
    3.0525   -4.3730    0.0000 N   0  0  0  0  0  0  0  0  0  0  0  0
    3.8372   -4.1181    0.0000 C   0  0  0  0  0  0  0  0  0  0  0  0
    4.0087   -3.3111    0.0000 C   0  0  0  0  0  0  0  0  0  0  0  0
    3.3956   -2.7591    0.0000 F   0  0  0  0  0  0  0  0  0  0  0  0
    4.7933   -3.0562    0.0000 C   0  0  0  0  0  0  0  0  0  0  0  0
    5.4064   -3.6082    0.0000 C   0  0  0  0  0  0  0  0  0  0  0  0
    6.1910   -3.3533    0.0000 C   0  0  0  0  0  0  0  0  0  0  0  0
    6.3625   -2.5463    0.0000 C   0  0  0  0  0  0  0  0  0  0  0  0
    7.1472   -2.2913    0.0000 C   0  0  0  0  0  0  0  0  0  0  0  0
    7.7603   -2.8434    0.0000 C   0  0  0  0  0  0  0  0  0  0  0  0
    7.5887   -3.6503    0.0000 C   0  0  0  0  0  0  0  0  0  0  0  0
    8.2018   -4.2024    0.0000 O   0  0  0  0  0  0  0  0  0  0  0  0
    8.9864   -3.9474    0.0000 C   0  0  0  0  0  0  0  0  0  0  0  0
    9.7711   -3.6925    0.0000 F   0  0  0  0  0  0  0  0  0  0  0  0
    9.2414   -4.7321    0.0000 F   0  0  0  0  0  0  0  0  0  0  0  0
    8.7315   -3.1628    0.0000 F   0  0  0  0  0  0  0  0  0  0  0  0
    6.8041   -3.9053    0.0000 C   0  0  0  0  0  0  0  0  0  0  0  0
    5.2349   -4.4152    0.0000 C   0  0  0  0  0  0  0  0  0  0  0  0
    4.4502   -4.6701    0.0000 C   0  0  0  0  0  0  0  0  0  0  0  0
    4.2787   -5.4771    0.0000 F   0  0  0  0  0  0  0  0  0  0  0  0
    1.8414   -6.2195    0.0000 C   0  0  0  0  0  0  0  0  0  0  0  0
    1.0164   -6.2195    0.0000 C   0  0  0  0  0  0  0  0  0  0  0  0
    0.7615   -5.4349    0.0000 C   0  0  0  0  0  0  0  0  0  0  0  0
  1  2  2  0  0  0  0
  2  3  1  0  0  0  0
  2  4  1  0  0  0  0
  4  5  2  0  0  0  0
  5  6  1  0  0  0  0
  6  7  2  0  0  0  0
  6  8  1  0  0  0  0
  8  9  1  0  0  0  0
  9 10  4  0  0  0  0
 10 11  1  0  0  0  0
 10 12  4  0  0  0  0
 12 13  4  0  0  0  0
 13 14  1  0  0  0  0
 14 15  4  0  0  0  0
 15 16  4  0  0  0  0
 16 17  4  0  0  0  0
 17 18  4  0  0  0  0
 18 19  1  0  0  0  0
 19 20  1  0  0  0  0
 20 21  1  0  0  0  0
 20 22  1  0  0  0  0
 20 23  1  0  0  0  0
 18 24  4  0  0  0  0
 14 24  4  0  0  0  0
 13 25  4  0  0  0  0
 25 26  4  0  0  0  0
  9 26  4  0  0  0  0
 26 27  1  0  0  0  0
  5 28  1  0  0  0  0
 28 29  1  0  0  0  0
 29 30  1  0  0  0  0
  4 30  1  0  0  0  0
M  END
> <IC50(uM)>
0.033

> <Outcome>
1.0

> <BindingDB ID>
50251720; 28077; 50319905

> <BindingDB MonomerID>
15343

> <BindingDB Ligand Name>
2-({2,6-difluoro-4-[3-(trifluoromethoxy)phenyl]phenyl}carbamoyl)cyclopent-1-ene-1-carboxylic acid::CHEMBL157105::Compound 4

> <Curation/DataSource>
ChEMBL; Curated from the literature by BindingDB

> <Article DOI>
10.1016/j.bmcl.2003.10.021; 10.1021/jm0506975; 10.1016/j.bmcl.2005.07.053

> <PMID>
14684297; 16480261; 16143532

> <Patent Number>
?

> <Authors>
Leban, J; Saeb, W; Garcia, G; Baumgartner, R; Kramer, B; Baumgartner, R; Walloschek, M; Kralik, M; Gotschlich, A; Tasler, S; Mies, J; Leban, J; Leban, J; Kralik, M; Mies, J; Gassen, M; Tentschert, K; Baumgartner, R

> <Link to Ligand in BindingDB>
http://www.bindingdb.org/bind/chemsearch/marvin/MolStructure.jsp?monomerid=15343

> <Link to Ligand-Target Pair in BindingDB>
http://www.bindingdb.org/jsp/dbsearch/PrimarySearch_ki.jsp?energyterm=kJ/mole&tag=r21&monomerid=15343&enzyme=Dihydroorotate+dehydrogenase&column=ki&startPg=0&Increment=50&submit=Search

> <PubChem CID>
10342449

> <PubChem SID>
46515647

$$$$

  Mrv2115 07222212352D          

 34 36  0  0  0  0            999 V2000
    2.1434   -3.7125    0.0000 C   0  0  0  0  0  0  0  0  0  0  0  0
    2.8579   -4.1250    0.0000 C   0  0  0  0  0  0  0  0  0  0  0  0
    3.5724   -3.7125    0.0000 C   0  0  0  0  0  0  0  0  0  0  0  0
    4.2868   -4.1250    0.0000 C   0  0  0  0  0  0  0  0  0  0  0  0
    4.2868   -4.9500    0.0000 C   0  0  0  0  0  0  0  0  0  0  0  0
    5.0013   -3.7125    0.0000 O   0  0  0  0  0  0  0  0  0  0  0  0
    5.0013   -2.8875    0.0000 C   0  0  0  0  0  0  0  0  0  0  0  0
    4.2868   -2.4750    0.0000 C   0  0  0  0  0  0  0  0  0  0  0  0
    4.2868   -1.6500    0.0000 C   0  0  0  0  0  0  0  0  0  0  0  0
    3.5724   -1.2375    0.0000 N   0  0  0  0  0  0  0  0  0  0  0  0
    2.8187   -1.5731    0.0000 N   0  0  0  0  0  0  0  0  0  0  0  0
    2.2666   -0.9600    0.0000 C   0  0  0  0  0  0  0  0  0  0  0  0
    1.4462   -1.0462    0.0000 C   0  0  0  0  0  0  0  0  0  0  0  0
    1.1106   -1.7999    0.0000 C   0  0  0  0  0  0  0  0  0  0  0  0
    2.6791   -0.2455    0.0000 N   0  0  0  0  0  0  0  0  0  0  0  0
    2.3436    0.5082    0.0000 C   0  0  0  0  0  0  0  0  0  0  0  0
    3.4861   -0.4170    0.0000 C   0  0  0  0  0  0  0  0  0  0  0  0
    4.0992    0.1350    0.0000 O   0  0  0  0  0  0  0  0  0  0  0  0
    5.0013   -1.2375    0.0000 C   0  0  0  0  0  0  0  0  0  0  0  0
    5.0013   -0.4125    0.0000 F   0  0  0  0  0  0  0  0  0  0  0  0
    5.7158   -1.6500    0.0000 C   0  0  0  0  0  0  0  0  0  0  0  0
    5.7158   -2.4750    0.0000 C   0  0  0  0  0  0  0  0  0  0  0  0
    6.4302   -2.8875    0.0000 C   0  0  0  0  0  0  0  0  0  0  0  0
    6.4302   -3.7125    0.0000 O   0  0  0  0  0  0  0  0  0  0  0  0
    7.1447   -2.4750    0.0000 N   0  0  0  0  0  0  0  0  0  0  0  0
    7.8592   -2.8875    0.0000 C   0  0  0  0  0  0  0  0  0  0  0  0
    8.5737   -2.4750    0.0000 C   0  0  0  0  0  0  0  0  0  0  0  0
    8.5737   -1.6500    0.0000 C   0  0  0  0  0  0  0  0  0  0  0  0
    9.2881   -2.8875    0.0000 C   0  0  0  0  0  0  0  0  0  0  0  0
    9.2881   -3.7125    0.0000 C   0  0  0  0  0  0  0  0  0  0  0  0
   10.0026   -4.1250    0.0000 N   0  0  0  0  0  0  0  0  0  0  0  0
    8.5737   -4.1250    0.0000 C   0  0  0  0  0  0  0  0  0  0  0  0
    7.8592   -3.7125    0.0000 C   0  0  0  0  0  0  0  0  0  0  0  0
    7.1447   -4.1250    0.0000 C   0  0  0  0  0  0  0  0  0  0  0  0
  1  2  1  0  0  0  0
  2  3  1  0  0  0  0
  3  4  1  0  0  0  0
  4  5  1  0  0  0  0
  4  6  1  0  0  0  0
  6  7  1  0  0  0  0
  7  8  4  0  0  0  0
  8  9  4  0  0  0  0
  9 10  1  0  0  0  0
 10 11  4  0  0  0  0
 11 12  4  0  0  0  0
 12 13  1  0  0  0  0
 13 14  1  0  0  0  0
 12 15  4  0  0  0  0
 15 16  1  0  0  0  0
 15 17  4  0  0  0  0
 10 17  4  0  0  0  0
 17 18  2  0  0  0  0
  9 19  4  0  0  0  0
 19 20  1  0  0  0  0
 19 21  4  0  0  0  0
 21 22  4  0  0  0  0
  7 22  4  0  0  0  0
 22 23  1  0  0  0  0
 23 24  2  0  0  0  0
 23 25  1  0  0  0  0
 25 26  1  0  0  0  0
 26 27  4  0  0  0  0
 27 28  1  0  0  0  0
 27 29  4  0  0  0  0
 29 30  4  0  0  0  0
 30 31  1  0  0  0  0
 30 32  4  0  0  0  0
 32 33  4  0  0  0  0
 26 33  4  0  0  0  0
 33 34  1  0  0  0  0
M  END
> <IC50(uM)>
0.015300000000000001

> <Outcome>
1.0

> <BindingDB ID>
972509; 1098663

> <BindingDB MonomerID>
470385

> <BindingDB Ligand Name>
US10815215, Example 44; US10815215, Example 44::US11130745, Example 44

> <Curation/DataSource>
US Patent

> <Article DOI>
?

> <PMID>
?

> <Patent Number>
US10815215; US11130745

> <Authors>
Gradl, SN; Nguyen, D; Eis, K; Gunther, J; Stellfeld, T; Janzer, A; Christian, S; Muller, T; Sheikh, SE; Zhou, HJ; Zhao, C; Sykes, DB; Ferrara, SJ; Liu, K; Krober, M; Merz, C; Niehues, M; Schafer, M; Zimmermann, K; Nising, CF; Gradl, SN; Nguyen, D; Eis, K; Gunther, J; Stellfeld, T; Janzer, A; Christian, S; Muller, T; Sheikh, SE; Sykes, DB; Ferrara, SJ; Krober, M; Merz, C; Niehues, M; Schafer, M; Zimmermann, K; Nising, CF

> <Link to Ligand in BindingDB>
http://www.bindingdb.org/bind/chemsearch/marvin/MolStructure.jsp?monomerid=470385

> <Link to Ligand-Target Pair in BindingDB>
http://www.bindingdb.org/jsp/dbsearch/PrimarySearch_ki.jsp?energyterm=kJ/mole&tag=r21&monomerid=470385&enzyme=Dihydroorotate+dehydrogenase&column=ki&startPg=0&Increment=50&submit=Search

> <PubChem CID>
134470270

> <PubChem SID>
441609562

$$$$

  Mrv2115 07222212352D          

 37 40  0  0  0  0            999 V2000
   -3.2083    2.1568    0.0000 C   0  0  0  0  0  0  0  0  0  0  0  0
   -2.7958    1.4423    0.0000 C   0  0  0  0  0  0  0  0  0  0  0  0
   -3.2083    0.7279    0.0000 O   0  0  0  0  0  0  0  0  0  0  0  0
   -2.7958    0.0134    0.0000 C   0  0  0  0  0  0  0  0  0  0  0  0
   -1.9708    0.0134    0.0000 C   0  0  0  0  0  0  0  0  0  0  0  0
   -1.5583   -0.7011    0.0000 C   0  0  0  0  0  0  0  0  0  0  0  0
   -0.7333   -0.7011    0.0000 N   0  0  0  0  0  0  0  0  0  0  0  0
   -0.2483   -1.3685    0.0000 N   0  0  0  0  0  0  0  0  0  0  0  0
    0.5363   -1.1136    0.0000 C   0  0  0  0  0  0  0  0  0  0  0  0
    0.5363   -0.2886    0.0000 N   0  0  0  0  0  0  0  0  0  0  0  0
   -0.2483   -0.0336    0.0000 C   0  0  0  0  0  0  0  0  0  0  0  0
   -0.5033    0.7510    0.0000 O   0  0  0  0  0  0  0  0  0  0  0  0
    1.1813    0.2258    0.0000 C   0  0  0  0  0  0  0  0  0  0  0  0
    1.9856    0.0422    0.0000 C   0  0  0  0  0  0  0  0  0  0  0  0
    2.3436   -0.7011    0.0000 C   0  0  0  0  0  0  0  0  0  0  0  0
    1.9856   -1.4444    0.0000 O   0  0  0  0  0  0  0  0  0  0  0  0
    1.1813   -1.6280    0.0000 C   0  0  0  0  0  0  0  0  0  0  0  0
   -1.9708   -1.4156    0.0000 C   0  0  0  0  0  0  0  0  0  0  0  0
   -1.5583   -2.1300    0.0000 F   0  0  0  0  0  0  0  0  0  0  0  0
   -2.7958   -1.4156    0.0000 C   0  0  0  0  0  0  0  0  0  0  0  0
   -3.2083   -0.7011    0.0000 C   0  0  0  0  0  0  0  0  0  0  0  0
   -4.0333   -0.7011    0.0000 C   0  0  0  0  0  0  0  0  0  0  0  0
   -4.4458    0.0134    0.0000 O   0  0  0  0  0  0  0  0  0  0  0  0
   -4.4458   -1.4156    0.0000 N   0  0  0  0  0  0  0  0  0  0  0  0
   -5.2708   -1.4156    0.0000 C   0  0  0  0  0  0  0  0  0  0  0  0
   -5.6833   -2.1300    0.0000 C   0  0  0  0  0  0  0  0  0  0  0  0
   -5.2708   -2.8445    0.0000 Cl  0  0  0  0  0  0  0  0  0  0  0  0
   -6.5083   -2.1300    0.0000 C   0  0  0  0  0  0  0  0  0  0  0  0
   -6.9208   -1.4156    0.0000 C   0  0  0  0  0  0  0  0  0  0  0  0
   -6.5083   -0.7011    0.0000 C   0  0  0  0  0  0  0  0  0  0  0  0
   -6.9208    0.0134    0.0000 F   0  0  0  0  0  0  0  0  0  0  0  0
   -5.6833   -0.7011    0.0000 C   0  0  0  0  0  0  0  0  0  0  0  0
   -5.2708    0.0134    0.0000 F   0  0  0  0  0  0  0  0  0  0  0  0
   -1.9708    1.4423    0.0000 C   0  0  0  0  0  0  0  0  0  0  0  0
   -1.9708    0.6173    0.0000 F   0  0  0  0  0  0  0  0  0  0  0  0
   -1.9708    2.2673    0.0000 F   0  0  0  0  0  0  0  0  0  0  0  0
   -1.1458    1.4423    0.0000 F   0  0  0  0  0  0  0  0  0  0  0  0
  1  2  1  0  0  0  0
  2  3  1  0  0  0  0
  3  4  1  0  0  0  0
  4  5  4  0  0  0  0
  5  6  4  0  0  0  0
  6  7  1  0  0  0  0
  7  8  4  0  0  0  0
  8  9  4  0  0  0  0
  9 10  4  0  0  0  0
 10 11  4  0  0  0  0
  7 11  4  0  0  0  0
 11 12  2  0  0  0  0
 10 13  1  0  0  0  0
 13 14  1  0  0  0  0
 14 15  1  0  0  0  0
 15 16  1  0  0  0  0
 16 17  1  0  0  0  0
  9 17  1  0  0  0  0
  6 18  4  0  0  0  0
 18 19  1  0  0  0  0
 18 20  4  0  0  0  0
 20 21  4  0  0  0  0
  4 21  4  0  0  0  0
 21 22  1  0  0  0  0
 22 23  2  0  0  0  0
 22 24  1  0  0  0  0
 24 25  1  0  0  0  0
 25 26  4  0  0  0  0
 26 27  1  0  0  0  0
 26 28  4  0  0  0  0
 28 29  4  0  0  0  0
 29 30  4  0  0  0  0
 30 31  1  0  0  0  0
 30 32  4  0  0  0  0
 25 32  4  0  0  0  0
 32 33  1  0  0  0  0
  2 34  1  0  0  0  0
 34 35  1  0  0  0  0
 34 36  1  0  0  0  0
 34 37  1  0  0  0  0
M  END
> <IC50(uM)>
0.018

> <Outcome>
1.0

> <BindingDB ID>
1020646

> <BindingDB MonomerID>
490575

> <BindingDB Ligand Name>
N-(6-chloro-2,3-difluorophenyl)-5-fluoro-4-(3-oxo-6,7-dihydro-3H,5H-[1,2,4]triazolo[3,4-c]-[1,4]oxazepin-2(9H)-yl)-2-{[(2S)-1,1,1-trifluoropropan-2-yl]oxy}benzamide::US10968216, Example 243

> <Curation/DataSource>
US Patent

> <Article DOI>
?

> <PMID>
?

> <Patent Number>
US10968216

> <Authors>
Gradl, SN; Nguyen, D; Eis, K; Gunther, J; Stellfeld, T; Janzer, A; Christian, S; Mueller, T; Sheikh, SE; Zhou, HJ; Zhao, C; Sykes, DB; Ferrara, SJ; Liu, K; Herbert, SA; Merz, C; Niehues, M; Nising, CF; Schafer, M; Zimmermann, K; Knablein, J; Thede, K; Faupel, T

> <Link to Ligand in BindingDB>
http://www.bindingdb.org/bind/chemsearch/marvin/MolStructure.jsp?monomerid=490575

> <Link to Ligand-Target Pair in BindingDB>
http://www.bindingdb.org/jsp/dbsearch/PrimarySearch_ki.jsp?energyterm=kJ/mole&tag=r21&monomerid=490575&enzyme=Dihydroorotate+dehydrogenase&column=ki&startPg=0&Increment=50&submit=Search

> <PubChem CID>
134473986

> <PubChem SID>
447117301

$$$$

  Mrv2115 07222212352D          

 26 28  0  0  0  0            999 V2000
    7.8592    1.2375    0.0000 O   0  0  0  0  0  0  0  0  0  0  0  0
    7.8592    0.4125    0.0000 C   0  0  0  0  0  0  0  0  0  0  0  0
    7.1447    0.0000    0.0000 C   0  0  0  0  0  0  0  0  0  0  0  0
    6.4302    0.4125    0.0000 C   0  0  0  0  0  0  0  0  0  0  0  0
    5.7158    0.0000    0.0000 N   0  0  0  0  0  0  0  0  0  0  0  0
    5.0013    0.4125    0.0000 C   0  0  0  0  0  0  0  0  0  0  0  0
    5.0013    1.2375    0.0000 O   0  0  0  0  0  0  0  0  0  0  0  0
    4.2868    0.0000    0.0000 C   0  0  0  0  0  0  0  0  0  0  0  0
    4.2868   -0.8250    0.0000 C   0  0  0  0  0  0  0  0  0  0  0  0
    3.5724   -1.2375    0.0000 C   0  0  0  0  0  0  0  0  0  0  0  0
    2.8579   -0.8250    0.0000 C   0  0  0  0  0  0  0  0  0  0  0  0
    2.1434   -1.2375    0.0000 Cl  0  0  0  0  0  0  0  0  0  0  0  0
    2.8579    0.0000    0.0000 C   0  0  0  0  0  0  0  0  0  0  0  0
    2.1434    0.4125    0.0000 Cl  0  0  0  0  0  0  0  0  0  0  0  0
    3.5724    0.4125    0.0000 C   0  0  0  0  0  0  0  0  0  0  0  0
    8.5737    0.0000    0.0000 N   0  0  0  0  0  0  0  0  0  0  0  0
    9.2881    0.4125    0.0000 C   0  0  0  0  0  0  0  0  0  0  0  0
    9.2881    1.2375    0.0000 C   0  0  0  0  0  0  0  0  0  0  0  0
   10.0026    1.6500    0.0000 C   0  0  0  0  0  0  0  0  0  0  0  0
   10.7171    1.2375    0.0000 C   0  0  0  0  0  0  0  0  0  0  0  0
   10.7171    0.4125    0.0000 C   0  0  0  0  0  0  0  0  0  0  0  0
   11.4315    0.0000    0.0000 C   0  0  0  0  0  0  0  0  0  0  0  0
   11.4315   -0.8250    0.0000 C   0  0  0  0  0  0  0  0  0  0  0  0
   10.7171   -1.2375    0.0000 C   0  0  0  0  0  0  0  0  0  0  0  0
   10.0026   -0.8250    0.0000 C   0  0  0  0  0  0  0  0  0  0  0  0
   10.0026    0.0000    0.0000 C   0  0  0  0  0  0  0  0  0  0  0  0
  1  2  2  0  0  0  0
  2  3  1  0  0  0  0
  3  4  1  0  0  0  0
  4  5  1  0  0  0  0
  5  6  1  0  0  0  0
  6  7  2  0  0  0  0
  6  8  1  0  0  0  0
  8  9  4  0  0  0  0
  9 10  4  0  0  0  0
 10 11  4  0  0  0  0
 11 12  1  0  0  0  0
 11 13  4  0  0  0  0
 13 14  1  0  0  0  0
 13 15  4  0  0  0  0
  8 15  4  0  0  0  0
  2 16  1  0  0  0  0
 16 17  1  0  0  0  0
 17 18  1  0  0  0  0
 18 19  1  0  0  0  0
 19 20  1  0  0  0  0
 20 21  1  0  0  0  0
 21 22  4  0  0  0  0
 22 23  4  0  0  0  0
 23 24  4  0  0  0  0
 24 25  4  0  0  0  0
 25 26  4  0  0  0  0
 21 26  4  0  0  0  0
 17 26  1  0  0  0  0
M  END
> <IC50(uM)>
1.5

> <Outcome>
0.0

> <BindingDB ID>
50527784

> <BindingDB MonomerID>
50201628

> <BindingDB Ligand Name>
CHEMBL3188954

> <Curation/DataSource>
ChEMBL

> <Article DOI>
10.1021/acsmedchemlett.6b00316

> <PMID>
27994748

> <Patent Number>
?

> <Authors>
Lewis, TA; Sykes, DB; Law, JM; Mu??oz, B; Rustiguel, JK; Nonato, MC; Scadden, DT; Schreiber, SL

> <Link to Ligand in BindingDB>
http://www.bindingdb.org/bind/chemsearch/marvin/MolStructure.jsp?monomerid=50201628

> <Link to Ligand-Target Pair in BindingDB>
http://www.bindingdb.org/jsp/dbsearch/PrimarySearch_ki.jsp?energyterm=kJ/mole&tag=r21&monomerid=50201628&enzyme=Dihydroorotate+dehydrogenase&column=ki&startPg=0&Increment=50&submit=Search

> <PubChem CID>
71768307

> <PubChem SID>
375979416

$$$$

  Mrv2115 07222212352D          

 35 38  0  0  0  0            999 V2000
   -5.1659   -2.8414    0.0000 C   0  0  0  0  0  0  0  0  0  0  0  0
   -5.5784   -2.1269    0.0000 C   0  0  0  0  0  0  0  0  0  0  0  0
   -6.4034   -2.1269    0.0000 C   0  0  0  0  0  0  0  0  0  0  0  0
   -6.8159   -1.4124    0.0000 C   0  0  0  0  0  0  0  0  0  0  0  0
   -6.4034   -0.6979    0.0000 C   0  0  0  0  0  0  0  0  0  0  0  0
   -6.8159    0.0165    0.0000 F   0  0  0  0  0  0  0  0  0  0  0  0
   -5.5784   -0.6979    0.0000 C   0  0  0  0  0  0  0  0  0  0  0  0
   -5.1659   -1.4124    0.0000 C   0  0  0  0  0  0  0  0  0  0  0  0
   -4.3409   -1.4124    0.0000 N   0  0  0  0  0  0  0  0  0  0  0  0
   -3.9284   -0.6979    0.0000 C   0  0  0  0  0  0  0  0  0  0  0  0
   -4.3409    0.0165    0.0000 O   0  0  0  0  0  0  0  0  0  0  0  0
   -3.1034   -0.6979    0.0000 C   0  0  0  0  0  0  0  0  0  0  0  0
   -2.6909    0.0165    0.0000 C   0  0  0  0  0  0  0  0  0  0  0  0
   -1.8659    0.0165    0.0000 C   0  0  0  0  0  0  0  0  0  0  0  0
   -1.4534    0.7310    0.0000 F   0  0  0  0  0  0  0  0  0  0  0  0
   -1.4534   -0.6979    0.0000 C   0  0  0  0  0  0  0  0  0  0  0  0
   -0.6284   -0.6979    0.0000 N   0  0  0  0  0  0  0  0  0  0  0  0
   -0.1435   -1.3654    0.0000 N   0  0  0  0  0  0  0  0  0  0  0  0
    0.6411   -1.1104    0.0000 C   0  0  0  0  0  0  0  0  0  0  0  0
    0.6411   -0.2854    0.0000 N   0  0  0  0  0  0  0  0  0  0  0  0
   -0.1435   -0.0305    0.0000 C   0  0  0  0  0  0  0  0  0  0  0  0
   -0.3984    0.7541    0.0000 O   0  0  0  0  0  0  0  0  0  0  0  0
    1.3556    0.1271    0.0000 C   0  0  0  0  0  0  0  0  0  0  0  0
    2.0701   -0.2854    0.0000 C   0  0  0  0  0  0  0  0  0  0  0  0
    2.0701   -1.1104    0.0000 C   0  0  0  0  0  0  0  0  0  0  0  0
    1.3556   -1.5229    0.0000 C   0  0  0  0  0  0  0  0  0  0  0  0
   -1.8659   -1.4124    0.0000 C   0  0  0  0  0  0  0  0  0  0  0  0
   -2.6909   -1.4124    0.0000 C   0  0  0  0  0  0  0  0  0  0  0  0
   -3.1034   -2.1269    0.0000 O   0  0  0  0  0  0  0  0  0  0  0  0
   -2.6909   -2.8414    0.0000 C   0  0  0  0  0  0  0  0  0  0  0  0
   -1.8659   -2.8414    0.0000 C   0  0  0  0  0  0  0  0  0  0  0  0
   -3.1034   -3.5558    0.0000 C   0  0  0  0  0  0  0  0  0  0  0  0
   -2.6909   -4.2703    0.0000 N   0  0  0  0  0  0  0  0  0  0  0  0
   -1.8659   -4.2703    0.0000 C   0  0  0  0  0  0  0  0  0  0  0  0
   -3.1034   -4.9848    0.0000 C   0  0  0  0  0  0  0  0  0  0  0  0
  1  2  1  0  0  0  0
  2  3  4  0  0  0  0
  3  4  4  0  0  0  0
  4  5  4  0  0  0  0
  5  6  1  0  0  0  0
  5  7  4  0  0  0  0
  7  8  4  0  0  0  0
  2  8  4  0  0  0  0
  8  9  1  0  0  0  0
  9 10  1  0  0  0  0
 10 11  2  0  0  0  0
 10 12  1  0  0  0  0
 12 13  4  0  0  0  0
 13 14  4  0  0  0  0
 14 15  1  0  0  0  0
 14 16  4  0  0  0  0
 16 17  1  0  0  0  0
 17 18  4  0  0  0  0
 18 19  4  0  0  0  0
 19 20  4  0  0  0  0
 20 21  4  0  0  0  0
 17 21  4  0  0  0  0
 21 22  2  0  0  0  0
 20 23  1  0  0  0  0
 23 24  1  0  0  0  0
 24 25  1  0  0  0  0
 25 26  1  0  0  0  0
 19 26  1  0  0  0  0
 16 27  4  0  0  0  0
 27 28  4  0  0  0  0
 12 28  4  0  0  0  0
 28 29  1  0  0  0  0
 29 30  1  0  0  0  0
 30 31  1  0  0  0  0
 30 32  1  0  0  0  0
 32 33  1  0  0  0  0
 33 34  1  0  0  0  0
 33 35  1  0  0  0  0
M  END
> <IC50(uM)>
0.025

> <Outcome>
1.0

> <BindingDB ID>
1020676

> <BindingDB MonomerID>
490602

> <BindingDB Ligand Name>
2-{[(2S)-1-(dimethylamino)propan-2-yl]oxy}-5-fluoro-N-(5-fluoro-2-methylphenyl)-4-(3-oxo-5,6,7,8-tetrahydro[1,2,4]triazolo[4,3-a]pyridin-2(3H)-yl)benzamide::US10968216, Example 270

> <Curation/DataSource>
US Patent

> <Article DOI>
?

> <PMID>
?

> <Patent Number>
US10968216

> <Authors>
Gradl, SN; Nguyen, D; Eis, K; Gunther, J; Stellfeld, T; Janzer, A; Christian, S; Mueller, T; Sheikh, SE; Zhou, HJ; Zhao, C; Sykes, DB; Ferrara, SJ; Liu, K; Herbert, SA; Merz, C; Niehues, M; Nising, CF; Schafer, M; Zimmermann, K; Knablein, J; Thede, K; Faupel, T

> <Link to Ligand in BindingDB>
http://www.bindingdb.org/bind/chemsearch/marvin/MolStructure.jsp?monomerid=490602

> <Link to Ligand-Target Pair in BindingDB>
http://www.bindingdb.org/jsp/dbsearch/PrimarySearch_ki.jsp?energyterm=kJ/mole&tag=r21&monomerid=490602&enzyme=Dihydroorotate+dehydrogenase&column=ki&startPg=0&Increment=50&submit=Search

> <PubChem CID>
134474433

> <PubChem SID>
447117328

$$$$

  Mrv2115 07222212352D          

 31 35  0  0  0  0            999 V2000
    0.0032   -7.8243    0.0000 C   0  0  0  0  0  0  0  0  0  0  0  0
   -0.3323   -7.0706    0.0000 C   0  0  0  0  0  0  0  0  0  0  0  0
    0.1526   -6.4032    0.0000 O   0  0  0  0  0  0  0  0  0  0  0  0
   -0.1830   -5.6495    0.0000 C   0  0  0  0  0  0  0  0  0  0  0  0
   -1.0034   -5.5632    0.0000 O   0  0  0  0  0  0  0  0  0  0  0  0
    0.3020   -4.9820    0.0000 C   0  0  0  0  0  0  0  0  0  0  0  0
    0.0470   -4.1974    0.0000 S   0  0  0  0  0  0  0  0  0  0  0  0
    0.7145   -3.7125    0.0000 C   0  0  0  0  0  0  0  0  0  0  0  0
    0.7145   -2.8875    0.0000 N   0  0  0  0  0  0  0  0  0  0  0  0
    1.4289   -2.4750    0.0000 C   0  0  0  0  0  0  0  0  0  0  0  0
    1.4289   -1.6500    0.0000 C   0  0  0  0  0  0  0  0  0  0  0  0
    2.1434   -1.2375    0.0000 C   0  0  0  0  0  0  0  0  0  0  0  0
    2.8579   -1.6500    0.0000 C   0  0  0  0  0  0  0  0  0  0  0  0
    3.5724   -1.2375    0.0000 C   0  0  0  0  0  0  0  0  0  0  0  0
    4.2868   -1.6500    0.0000 C   0  0  0  0  0  0  0  0  0  0  0  0
    5.0013   -1.2375    0.0000 C   0  0  0  0  0  0  0  0  0  0  0  0
    5.7158   -1.6500    0.0000 C   0  0  0  0  0  0  0  0  0  0  0  0
    5.7158   -2.4750    0.0000 C   0  0  0  0  0  0  0  0  0  0  0  0
    5.0013   -2.8875    0.0000 C   0  0  0  0  0  0  0  0  0  0  0  0
    4.2868   -2.4750    0.0000 C   0  0  0  0  0  0  0  0  0  0  0  0
    3.5724   -2.8875    0.0000 C   0  0  0  0  0  0  0  0  0  0  0  0
    2.8579   -2.4750    0.0000 C   0  0  0  0  0  0  0  0  0  0  0  0
    2.1434   -2.8875    0.0000 C   0  0  0  0  0  0  0  0  0  0  0  0
    1.3819   -4.1974    0.0000 N   0  0  0  0  0  0  0  0  0  0  0  0
    1.1270   -4.9820    0.0000 C   0  0  0  0  0  0  0  0  0  0  0  0
    1.6119   -5.6495    0.0000 C   0  0  0  0  0  0  0  0  0  0  0  0
    2.4324   -5.5632    0.0000 C   0  0  0  0  0  0  0  0  0  0  0  0
    2.9173   -6.2307    0.0000 C   0  0  0  0  0  0  0  0  0  0  0  0
    2.5817   -6.9844    0.0000 C   0  0  0  0  0  0  0  0  0  0  0  0
    1.7613   -7.0706    0.0000 C   0  0  0  0  0  0  0  0  0  0  0  0
    1.2763   -6.4032    0.0000 C   0  0  0  0  0  0  0  0  0  0  0  0
  1  2  1  0  0  0  0
  2  3  1  0  0  0  0
  3  4  1  0  0  0  0
  4  5  2  0  0  0  0
  4  6  1  0  0  0  0
  6  7  4  0  0  0  0
  7  8  4  0  0  0  0
  8  9  1  0  0  0  0
  9 10  1  0  0  0  0
 10 11  4  0  0  0  0
 11 12  4  0  0  0  0
 12 13  4  0  0  0  0
 13 14  4  0  0  0  0
 14 15  4  0  0  0  0
 15 16  4  0  0  0  0
 16 17  4  0  0  0  0
 17 18  4  0  0  0  0
 18 19  4  0  0  0  0
 19 20  4  0  0  0  0
 15 20  4  0  0  0  0
 20 21  4  0  0  0  0
 21 22  4  0  0  0  0
 13 22  4  0  0  0  0
 22 23  4  0  0  0  0
 10 23  4  0  0  0  0
  8 24  4  0  0  0  0
 24 25  4  0  0  0  0
  6 25  4  0  0  0  0
 25 26  1  0  0  0  0
 26 27  4  0  0  0  0
 27 28  4  0  0  0  0
 28 29  4  0  0  0  0
 29 30  4  0  0  0  0
 30 31  4  0  0  0  0
 26 31  4  0  0  0  0
M  END
> <IC50(uM)>
0.453

> <Outcome>
1.0

> <BindingDB ID>
50312491

> <BindingDB MonomerID>
50071798

> <BindingDB Ligand Name>
CHEMBL3410611

> <Curation/DataSource>
ChEMBL

> <Article DOI>
10.1021/jm501127s

> <PMID>
25580811

> <Patent Number>
?

> <Authors>
Zhu, J; Han, L; Diao, Y; Ren, X; Xu, M; Xu, L; Li, S; Li, Q; Dong, D; Huang, J; Liu, X; Zhao, Z; Wang, R; Zhu, L; Xu, Y; Qian, X; Li, H

> <Link to Ligand in BindingDB>
http://www.bindingdb.org/bind/chemsearch/marvin/MolStructure.jsp?monomerid=50071798

> <Link to Ligand-Target Pair in BindingDB>
http://www.bindingdb.org/jsp/dbsearch/PrimarySearch_ki.jsp?energyterm=kJ/mole&tag=r21&monomerid=50071798&enzyme=Dihydroorotate+dehydrogenase&column=ki&startPg=0&Increment=50&submit=Search

> <PubChem CID>
118732519

> <PubChem SID>
103965508

$$$$

  Mrv2115 07222212352D          

 33 35  0  0  0  0            999 V2000
    2.1434   -3.7125    0.0000 C   0  0  0  0  0  0  0  0  0  0  0  0
    2.8579   -4.1250    0.0000 C   0  0  0  0  0  0  0  0  0  0  0  0
    3.5724   -3.7125    0.0000 C   0  0  0  0  0  0  0  0  0  0  0  0
    4.2868   -4.1250    0.0000 C   0  0  0  0  0  0  0  0  0  0  0  0
    4.2868   -4.9500    0.0000 C   0  0  0  0  0  0  0  0  0  0  0  0
    5.0013   -3.7125    0.0000 O   0  0  0  0  0  0  0  0  0  0  0  0
    5.0013   -2.8875    0.0000 C   0  0  0  0  0  0  0  0  0  0  0  0
    4.2868   -2.4750    0.0000 C   0  0  0  0  0  0  0  0  0  0  0  0
    4.2868   -1.6500    0.0000 C   0  0  0  0  0  0  0  0  0  0  0  0
    3.5724   -1.2375    0.0000 N   0  0  0  0  0  0  0  0  0  0  0  0
    2.8187   -1.5731    0.0000 N   0  0  0  0  0  0  0  0  0  0  0  0
    2.2666   -0.9600    0.0000 C   0  0  0  0  0  0  0  0  0  0  0  0
    1.4462   -1.0462    0.0000 C   0  0  0  0  0  0  0  0  0  0  0  0
    2.6791   -0.2455    0.0000 N   0  0  0  0  0  0  0  0  0  0  0  0
    2.3436    0.5082    0.0000 C   0  0  0  0  0  0  0  0  0  0  0  0
    1.5231    0.5944    0.0000 C   0  0  0  0  0  0  0  0  0  0  0  0
    2.8285    1.1756    0.0000 C   0  0  0  0  0  0  0  0  0  0  0  0
    3.4861   -0.4170    0.0000 C   0  0  0  0  0  0  0  0  0  0  0  0
    4.0992    0.1350    0.0000 O   0  0  0  0  0  0  0  0  0  0  0  0
    5.0013   -1.2375    0.0000 C   0  0  0  0  0  0  0  0  0  0  0  0
    5.0013   -0.4125    0.0000 F   0  0  0  0  0  0  0  0  0  0  0  0
    5.7158   -1.6500    0.0000 C   0  0  0  0  0  0  0  0  0  0  0  0
    5.7158   -2.4750    0.0000 C   0  0  0  0  0  0  0  0  0  0  0  0
    6.4302   -2.8875    0.0000 C   0  0  0  0  0  0  0  0  0  0  0  0
    6.4302   -3.7125    0.0000 O   0  0  0  0  0  0  0  0  0  0  0  0
    7.1447   -2.4750    0.0000 N   0  0  0  0  0  0  0  0  0  0  0  0
    7.8592   -2.8875    0.0000 C   0  0  0  0  0  0  0  0  0  0  0  0
    8.5737   -2.4750    0.0000 C   0  0  0  0  0  0  0  0  0  0  0  0
    9.2881   -2.8875    0.0000 C   0  0  0  0  0  0  0  0  0  0  0  0
    9.2881   -3.7125    0.0000 C   0  0  0  0  0  0  0  0  0  0  0  0
    8.5737   -4.1250    0.0000 C   0  0  0  0  0  0  0  0  0  0  0  0
    7.8592   -3.7125    0.0000 C   0  0  0  0  0  0  0  0  0  0  0  0
    7.1447   -4.1250    0.0000 C   0  0  0  0  0  0  0  0  0  0  0  0
  1  2  1  0  0  0  0
  2  3  1  0  0  0  0
  3  4  1  0  0  0  0
  4  5  1  0  0  0  0
  4  6  1  0  0  0  0
  6  7  1  0  0  0  0
  7  8  4  0  0  0  0
  8  9  4  0  0  0  0
  9 10  1  0  0  0  0
 10 11  4  0  0  0  0
 11 12  4  0  0  0  0
 12 13  1  0  0  0  0
 12 14  4  0  0  0  0
 14 15  1  0  0  0  0
 15 16  1  0  0  0  0
 15 17  1  0  0  0  0
 14 18  4  0  0  0  0
 10 18  4  0  0  0  0
 18 19  2  0  0  0  0
  9 20  4  0  0  0  0
 20 21  1  0  0  0  0
 20 22  4  0  0  0  0
 22 23  4  0  0  0  0
  7 23  4  0  0  0  0
 23 24  1  0  0  0  0
 24 25  2  0  0  0  0
 24 26  1  0  0  0  0
 26 27  1  0  0  0  0
 27 28  4  0  0  0  0
 28 29  4  0  0  0  0
 29 30  4  0  0  0  0
 30 31  4  0  0  0  0
 31 32  4  0  0  0  0
 27 32  4  0  0  0  0
 32 33  1  0  0  0  0
M  END
> <IC50(uM)>
0.023

> <Outcome>
1.0

> <BindingDB ID>
1098609; 972455; 1098610; 972456

> <BindingDB MonomerID>
470351

> <BindingDB Ligand Name>
5-fluoro-4-[3-methyl-5-oxo-4-(propan-2-yl)-4,5-dihydro-1H-1,2,4-triazol-1-yl]-N-(2-methyl-phenyl)-2-[(2S)-pentan-2-yloxy]benzamide::US10815215, Example 13::US11130745, Example 13; 5-fluoro-4-[3-methyl-5-oxo-4-(propan-2-yl)-4,5-dihydro-1H-1,2,4-triazol-1-yl]-N-(2-methyl-phenyl)-2-[(2S)-pentan-2-yloxy]benzamide::US10815215, Example 13

> <Curation/DataSource>
US Patent

> <Article DOI>
?

> <PMID>
?

> <Patent Number>
US11130745; US10815215

> <Authors>
Gradl, SN; Nguyen, D; Eis, K; Gunther, J; Stellfeld, T; Janzer, A; Christian, S; Muller, T; Sheikh, SE; Sykes, DB; Ferrara, SJ; Krober, M; Merz, C; Niehues, M; Schafer, M; Zimmermann, K; Nising, CF; Gradl, SN; Nguyen, D; Eis, K; Gunther, J; Stellfeld, T; Janzer, A; Christian, S; Muller, T; Sheikh, SE; Zhou, HJ; Zhao, C; Sykes, DB; Ferrara, SJ; Liu, K; Krober, M; Merz, C; Niehues, M; Schafer, M; Zimmermann, K; Nising, CF

> <Link to Ligand in BindingDB>
http://www.bindingdb.org/bind/chemsearch/marvin/MolStructure.jsp?monomerid=470351

> <Link to Ligand-Target Pair in BindingDB>
http://www.bindingdb.org/jsp/dbsearch/PrimarySearch_ki.jsp?energyterm=kJ/mole&tag=r21&monomerid=470351&enzyme=Dihydroorotate+dehydrogenase&column=ki&startPg=0&Increment=50&submit=Search

> <PubChem CID>
134470126

> <PubChem SID>
441609528

$$$$

  Mrv2115 07222212352D          

 29 31  0  0  0  0            999 V2000
    0.7145   11.7161    0.0000 C   0  0  0  0  0  0  0  0  0  0  0  0
    0.7145   10.8911    0.0000 O   0  0  0  0  0  0  0  0  0  0  0  0
    1.4289   10.4786    0.0000 C   0  0  0  0  0  0  0  0  0  0  0  0
    2.1434   10.8911    0.0000 C   0  0  0  0  0  0  0  0  0  0  0  0
    2.8579   10.4786    0.0000 C   0  0  0  0  0  0  0  0  0  0  0  0
    2.8579    9.6536    0.0000 C   0  0  0  0  0  0  0  0  0  0  0  0
    2.1434    9.2411    0.0000 C   0  0  0  0  0  0  0  0  0  0  0  0
    2.1434    8.4161    0.0000 C   0  0  0  0  0  0  0  0  0  0  0  0
    2.8579    8.0036    0.0000 C   0  0  0  0  0  0  0  0  0  0  0  0
    2.8579    7.1786    0.0000 C   0  0  0  0  0  0  0  0  0  0  0  0
    2.1434    6.7661    0.0000 C   0  0  0  0  0  0  0  0  0  0  0  0
    2.1434    5.9411    0.0000 N   0  0  0  0  0  0  0  0  0  0  0  0
    1.4289    5.5286    0.0000 C   0  0  0  0  0  0  0  0  0  0  0  0
    0.7145    5.9411    0.0000 O   0  0  0  0  0  0  0  0  0  0  0  0
    1.4289    4.7036    0.0000 C   0  0  0  0  0  0  0  0  0  0  0  0
    2.0964    4.2187    0.0000 C   0  0  0  0  0  0  0  0  0  0  0  0
    1.8414    3.4340    0.0000 S   0  0  0  0  0  0  0  0  0  0  0  0
    1.0164    3.4340    0.0000 C   0  0  0  0  0  0  0  0  0  0  0  0
    0.5315    2.7666    0.0000 C   0  0  0  0  0  0  0  0  0  0  0  0
    0.8671    2.0129    0.0000 O   0  0  0  0  0  0  0  0  0  0  0  0
   -0.2890    2.8528    0.0000 O   0  0  0  0  0  0  0  0  0  0  0  0
    0.7615    4.2187    0.0000 C   0  0  0  0  0  0  0  0  0  0  0  0
   -0.0231    4.4736    0.0000 C   0  0  0  0  0  0  0  0  0  0  0  0
   -0.1946    5.2806    0.0000 O   0  0  0  0  0  0  0  0  0  0  0  0
   -0.6362    3.9216    0.0000 O   0  0  0  0  0  0  0  0  0  0  0  0
    1.4289    7.1786    0.0000 C   0  0  0  0  0  0  0  0  0  0  0  0
    0.7145    6.7661    0.0000 F   0  0  0  0  0  0  0  0  0  0  0  0
    1.4289    8.0036    0.0000 C   0  0  0  0  0  0  0  0  0  0  0  0
    1.4289    9.6536    0.0000 C   0  0  0  0  0  0  0  0  0  0  0  0
  1  2  1  0  0  0  0
  2  3  1  0  0  0  0
  3  4  4  0  0  0  0
  4  5  4  0  0  0  0
  5  6  4  0  0  0  0
  6  7  4  0  0  0  0
  7  8  1  0  0  0  0
  8  9  4  0  0  0  0
  9 10  4  0  0  0  0
 10 11  4  0  0  0  0
 11 12  1  0  0  0  0
 12 13  1  0  0  0  0
 13 14  2  0  0  0  0
 13 15  1  0  0  0  0
 15 16  4  0  0  0  0
 16 17  4  0  0  0  0
 17 18  4  0  0  0  0
 18 19  1  0  0  0  0
 19 20  2  0  0  0  0
 19 21  1  0  0  0  0
 18 22  4  0  0  0  0
 15 22  4  0  0  0  0
 22 23  1  0  0  0  0
 23 24  2  0  0  0  0
 23 25  1  0  0  0  0
 11 26  4  0  0  0  0
 26 27  1  0  0  0  0
 26 28  4  0  0  0  0
  8 28  4  0  0  0  0
  7 29  4  0  0  0  0
  3 29  4  0  0  0  0
M  END
> <IC50(uM)>
1.0

> <Outcome>
1.0

> <BindingDB ID>
29227

> <BindingDB MonomerID>
16124

> <BindingDB Ligand Name>
4-{[2-fluoro-4-(3-methoxyphenyl)phenyl]carbamoyl}thiophene-2,3-dicarboxylic acid::Biphenyl-4-ylcarbamoyl Thiophene Analog 15

> <Curation/DataSource>
Curated from the literature by BindingDB

> <Article DOI>
10.1016/j.bmcl.2005.10.011

> <PMID>
16246558

> <Patent Number>
?

> <Authors>
Leban, J; Kralik, M; Mies, J; Baumgartner, R; Gassen, M; Tasler, S

> <Link to Ligand in BindingDB>
http://www.bindingdb.org/bind/chemsearch/marvin/MolStructure.jsp?monomerid=16124

> <Link to Ligand-Target Pair in BindingDB>
http://www.bindingdb.org/jsp/dbsearch/PrimarySearch_ki.jsp?energyterm=kJ/mole&tag=r21&monomerid=16124&enzyme=Dihydroorotate+Dehydrogenase+%28DHODH%29&column=ki&startPg=0&Increment=50&submit=Search

> <PubChem CID>
23647307

> <PubChem SID>
46516383

$$$$

  Mrv2115 07222212352D          

 30 33  0  0  0  0            999 V2000
    3.2789    7.0125    0.0000 C   0  0  0  0  0  0  0  0  0  0  0  0
    3.2789    6.1875    0.0000 O   0  0  0  0  0  0  0  0  0  0  0  0
    3.9934    5.7750    0.0000 C   0  0  0  0  0  0  0  0  0  0  0  0
    4.7079    6.1875    0.0000 O   0  0  0  0  0  0  0  0  0  0  0  0
    3.9934    4.9500    0.0000 C   0  0  0  0  0  0  0  0  0  0  0  0
    4.7079    4.5375    0.0000 C   0  0  0  0  0  0  0  0  0  0  0  0
    4.7079    3.7125    0.0000 C   0  0  0  0  0  0  0  0  0  0  0  0
    3.9934    3.3000    0.0000 C   0  0  0  0  0  0  0  0  0  0  0  0
    3.9934    2.4750    0.0000 C   0  0  0  0  0  0  0  0  0  0  0  0
    4.7079    2.0625    0.0000 O   0  0  0  0  0  0  0  0  0  0  0  0
    3.2789    2.0625    0.0000 N   0  0  0  0  0  0  0  0  0  0  0  0
    3.2789    1.2375    0.0000 C   0  0  0  0  0  0  0  0  0  0  0  0
    3.9934    0.8250    0.0000 C   0  0  0  0  0  0  0  0  0  0  0  0
    3.9934    0.0000    0.0000 C   0  0  0  0  0  0  0  0  0  0  0  0
    3.2789   -0.4125    0.0000 C   0  0  0  0  0  0  0  0  0  0  0  0
    2.5645    0.0000    0.0000 C   0  0  0  0  0  0  0  0  0  0  0  0
    2.5645    0.8250    0.0000 C   0  0  0  0  0  0  0  0  0  0  0  0
    1.7798    1.0799    0.0000 C   0  0  0  0  0  0  0  0  0  0  0  0
    1.2949    0.4125    0.0000 N   0  0  0  0  0  0  0  0  0  0  0  0
    1.7798   -0.2549    0.0000 N   0  0  0  0  0  0  0  0  0  0  0  0
    1.5249   -1.0396    0.0000 C   0  0  0  0  0  0  0  0  0  0  0  0
    2.0769   -1.6527    0.0000 C   0  0  0  0  0  0  0  0  0  0  0  0
    1.8220   -2.4373    0.0000 C   0  0  0  0  0  0  0  0  0  0  0  0
    2.3740   -3.0504    0.0000 F   0  0  0  0  0  0  0  0  0  0  0  0
    1.0150   -2.6088    0.0000 C   0  0  0  0  0  0  0  0  0  0  0  0
    0.4630   -1.9957    0.0000 C   0  0  0  0  0  0  0  0  0  0  0  0
   -0.3440   -2.1672    0.0000 F   0  0  0  0  0  0  0  0  0  0  0  0
    0.7179   -1.2111    0.0000 C   0  0  0  0  0  0  0  0  0  0  0  0
    3.2789    3.7125    0.0000 N   0  0  0  0  0  0  0  0  0  0  0  0
    3.2789    4.5375    0.0000 C   0  0  0  0  0  0  0  0  0  0  0  0
  1  2  1  0  0  0  0
  2  3  1  0  0  0  0
  3  4  2  0  0  0  0
  3  5  1  0  0  0  0
  5  6  4  0  0  0  0
  6  7  4  0  0  0  0
  7  8  4  0  0  0  0
  8  9  1  0  0  0  0
  9 10  2  0  0  0  0
  9 11  1  0  0  0  0
 11 12  1  0  0  0  0
 12 13  1  0  0  0  0
 13 14  1  0  0  0  0
 14 15  1  0  0  0  0
 15 16  1  0  0  0  0
 16 17  4  0  0  0  0
 12 17  1  0  0  0  0
 17 18  4  0  0  0  0
 18 19  4  0  0  0  0
 19 20  4  0  0  0  0
 16 20  4  0  0  0  0
 20 21  1  0  0  0  0
 21 22  4  0  0  0  0
 22 23  4  0  0  0  0
 23 24  1  0  0  0  0
 23 25  4  0  0  0  0
 25 26  4  0  0  0  0
 26 27  1  0  0  0  0
 26 28  4  0  0  0  0
 21 28  4  0  0  0  0
  8 29  4  0  0  0  0
 29 30  4  0  0  0  0
  5 30  4  0  0  0  0
M  END
> <IC50(uM)>
10.0

> <Outcome>
0.0

> <BindingDB ID>
993078

> <BindingDB MonomerID>
477580

> <BindingDB Ligand Name>
Methyl 6-({[1-(3,5-difluorophenyl)-4,5,6,7-tetrahydro-1H-indazol-4-yl]amino}carbonyl)nicotinate::US10889564, Example 9

> <Curation/DataSource>
US Patent

> <Article DOI>
?

> <PMID>
?

> <Patent Number>
US10889564

> <Authors>
Lain, S; Drummond, C; Leeuwen, IV; Haraldsson, M; Johansson, L; Sandberg, L; Yngve, U

> <Link to Ligand in BindingDB>
http://www.bindingdb.org/bind/chemsearch/marvin/MolStructure.jsp?monomerid=477580

> <Link to Ligand-Target Pair in BindingDB>
http://www.bindingdb.org/jsp/dbsearch/PrimarySearch_ki.jsp?energyterm=kJ/mole&tag=r21&monomerid=477580&enzyme=Dihydroorotate+dehydrogenase&column=ki&startPg=0&Increment=50&submit=Search

> <PubChem CID>
24794002

> <PubChem SID>
442137197

$$$$

  Mrv2115 07222212352D          

 35 38  0  0  0  0            999 V2000
   -5.1659    1.4455    0.0000 C   0  0  0  0  0  0  0  0  0  0  0  0
   -4.3409    1.4455    0.0000 C   0  0  0  0  0  0  0  0  0  0  0  0
   -3.9284    2.1599    0.0000 C   0  0  0  0  0  0  0  0  0  0  0  0
   -3.1034    2.1599    0.0000 C   0  0  0  0  0  0  0  0  0  0  0  0
   -2.6909    1.4455    0.0000 C   0  0  0  0  0  0  0  0  0  0  0  0
   -1.8659    1.4455    0.0000 F   0  0  0  0  0  0  0  0  0  0  0  0
   -3.1034    0.7310    0.0000 C   0  0  0  0  0  0  0  0  0  0  0  0
   -3.9284    0.7310    0.0000 C   0  0  0  0  0  0  0  0  0  0  0  0
   -4.3409    0.0165    0.0000 N   0  0  0  0  0  0  0  0  0  0  0  0
   -3.9284   -0.6979    0.0000 C   0  0  0  0  0  0  0  0  0  0  0  0
   -4.3409   -1.4124    0.0000 O   0  0  0  0  0  0  0  0  0  0  0  0
   -3.1034   -0.6979    0.0000 C   0  0  0  0  0  0  0  0  0  0  0  0
   -2.6909    0.0165    0.0000 C   0  0  0  0  0  0  0  0  0  0  0  0
   -1.8659    0.0165    0.0000 C   0  0  0  0  0  0  0  0  0  0  0  0
   -1.4534    0.7310    0.0000 F   0  0  0  0  0  0  0  0  0  0  0  0
   -1.4534   -0.6979    0.0000 C   0  0  0  0  0  0  0  0  0  0  0  0
   -0.6284   -0.6979    0.0000 N   0  0  0  0  0  0  0  0  0  0  0  0
   -0.1435   -1.3654    0.0000 N   0  0  0  0  0  0  0  0  0  0  0  0
    0.6411   -1.1104    0.0000 C   0  0  0  0  0  0  0  0  0  0  0  0
    0.6411   -0.2854    0.0000 N   0  0  0  0  0  0  0  0  0  0  0  0
   -0.1435   -0.0305    0.0000 C   0  0  0  0  0  0  0  0  0  0  0  0
   -0.3984    0.7541    0.0000 O   0  0  0  0  0  0  0  0  0  0  0  0
    1.3556    0.1271    0.0000 C   0  0  0  0  0  0  0  0  0  0  0  0
    2.0701   -0.2854    0.0000 C   0  0  0  0  0  0  0  0  0  0  0  0
    2.0701   -1.1104    0.0000 O   0  0  0  0  0  0  0  0  0  0  0  0
    1.3556   -1.5229    0.0000 C   0  0  0  0  0  0  0  0  0  0  0  0
   -1.8659   -1.4124    0.0000 C   0  0  0  0  0  0  0  0  0  0  0  0
   -2.6909   -1.4124    0.0000 C   0  0  0  0  0  0  0  0  0  0  0  0
   -3.1034   -2.1269    0.0000 O   0  0  0  0  0  0  0  0  0  0  0  0
   -2.6909   -2.8414    0.0000 C   0  0  0  0  0  0  0  0  0  0  0  0
   -1.8659   -2.8414    0.0000 C   0  0  0  0  0  0  0  0  0  0  0  0
   -3.1034   -3.5558    0.0000 C   0  0  0  0  0  0  0  0  0  0  0  0
   -3.8179   -3.1433    0.0000 F   0  0  0  0  0  0  0  0  0  0  0  0
   -2.3890   -3.9683    0.0000 F   0  0  0  0  0  0  0  0  0  0  0  0
   -3.5159   -4.2703    0.0000 F   0  0  0  0  0  0  0  0  0  0  0  0
  1  2  1  0  0  0  0
  2  3  4  0  0  0  0
  3  4  4  0  0  0  0
  4  5  4  0  0  0  0
  5  6  1  0  0  0  0
  5  7  4  0  0  0  0
  7  8  4  0  0  0  0
  2  8  4  0  0  0  0
  8  9  1  0  0  0  0
  9 10  1  0  0  0  0
 10 11  2  0  0  0  0
 10 12  1  0  0  0  0
 12 13  4  0  0  0  0
 13 14  4  0  0  0  0
 14 15  1  0  0  0  0
 14 16  4  0  0  0  0
 16 17  1  0  0  0  0
 17 18  4  0  0  0  0
 18 19  4  0  0  0  0
 19 20  4  0  0  0  0
 20 21  4  0  0  0  0
 17 21  4  0  0  0  0
 21 22  2  0  0  0  0
 20 23  1  0  0  0  0
 23 24  1  0  0  0  0
 24 25  1  0  0  0  0
 25 26  1  0  0  0  0
 19 26  1  0  0  0  0
 16 27  4  0  0  0  0
 27 28  4  0  0  0  0
 12 28  4  0  0  0  0
 28 29  1  0  0  0  0
 29 30  1  0  0  0  0
 30 31  1  0  0  0  0
 30 32  1  0  0  0  0
 32 33  1  0  0  0  0
 32 34  1  0  0  0  0
 32 35  1  0  0  0  0
M  END
> <IC50(uM)>
0.075

> <Outcome>
1.0

> <BindingDB ID>
1020584

> <BindingDB MonomerID>
490523

> <BindingDB Ligand Name>
5-fluoro-N-(5-fluoro-2-methylphenyl)-4-(3-oxo-5,6-dihydro-3H-[1,2,4]triazolo[3,4-c][1,4]oxazin-2(8H)-yl)-2-{[(2S)-1,1,1-trifluoropropan-2-yl]oxy}benzamide::US10968216, Example 191

> <Curation/DataSource>
US Patent

> <Article DOI>
?

> <PMID>
?

> <Patent Number>
US10968216

> <Authors>
Gradl, SN; Nguyen, D; Eis, K; Gunther, J; Stellfeld, T; Janzer, A; Christian, S; Mueller, T; Sheikh, SE; Zhou, HJ; Zhao, C; Sykes, DB; Ferrara, SJ; Liu, K; Herbert, SA; Merz, C; Niehues, M; Nising, CF; Schafer, M; Zimmermann, K; Knablein, J; Thede, K; Faupel, T

> <Link to Ligand in BindingDB>
http://www.bindingdb.org/bind/chemsearch/marvin/MolStructure.jsp?monomerid=490523

> <Link to Ligand-Target Pair in BindingDB>
http://www.bindingdb.org/jsp/dbsearch/PrimarySearch_ki.jsp?energyterm=kJ/mole&tag=r21&monomerid=490523&enzyme=Dihydroorotate+dehydrogenase&column=ki&startPg=0&Increment=50&submit=Search

> <PubChem CID>
134474419

> <PubChem SID>
447117249

$$$$

  Mrv2115 07222212352D          

 27 30  0  0  0  0            999 V2000
   -2.0470   -4.2338    0.0000 C   0  0  0  0  0  0  0  0  0  0  0  0
   -1.2400   -4.0623    0.0000 C   0  0  0  0  0  0  0  0  0  0  0  0
   -0.9851   -3.2777    0.0000 C   0  0  0  0  0  0  0  0  0  0  0  0
   -0.1781   -3.1062    0.0000 C   0  0  0  0  0  0  0  0  0  0  0  0
    0.0768   -2.3215    0.0000 N   0  0  0  0  0  0  0  0  0  0  0  0
    0.8838   -2.1500    0.0000 C   0  0  0  0  0  0  0  0  0  0  0  0
    1.4358   -2.7631    0.0000 O   0  0  0  0  0  0  0  0  0  0  0  0
    1.1387   -1.3654    0.0000 C   0  0  0  0  0  0  0  0  0  0  0  0
    0.6538   -0.6979    0.0000 C   0  0  0  0  0  0  0  0  0  0  0  0
   -0.1712   -0.6979    0.0000 O   0  0  0  0  0  0  0  0  0  0  0  0
    1.1387   -0.0305    0.0000 N   0  0  0  0  0  0  0  0  0  0  0  0
    1.9233   -0.2854    0.0000 N   0  0  0  0  0  0  0  0  0  0  0  0
    2.6378    0.1271    0.0000 C   0  0  0  0  0  0  0  0  0  0  0  0
    3.3523   -0.2854    0.0000 C   0  0  0  0  0  0  0  0  0  0  0  0
    3.3523   -1.1104    0.0000 C   0  0  0  0  0  0  0  0  0  0  0  0
    2.6378   -1.5229    0.0000 C   0  0  0  0  0  0  0  0  0  0  0  0
    1.9233   -1.1104    0.0000 C   0  0  0  0  0  0  0  0  0  0  0  0
    0.3739   -3.7192    0.0000 C   0  0  0  0  0  0  0  0  0  0  0  0
    0.1190   -4.5039    0.0000 C   0  0  0  0  0  0  0  0  0  0  0  0
   -0.6880   -4.6754    0.0000 C   0  0  0  0  0  0  0  0  0  0  0  0
   -0.9429   -5.4600    0.0000 O   0  0  0  0  0  0  0  0  0  0  0  0
   -1.7499   -5.6315    0.0000 C   0  0  0  0  0  0  0  0  0  0  0  0
   -2.0049   -6.4162    0.0000 C   0  0  0  0  0  0  0  0  0  0  0  0
   -2.8118   -6.5877    0.0000 C   0  0  0  0  0  0  0  0  0  0  0  0
   -3.3639   -5.9746    0.0000 C   0  0  0  0  0  0  0  0  0  0  0  0
   -3.1089   -5.1900    0.0000 C   0  0  0  0  0  0  0  0  0  0  0  0
   -2.3020   -5.0184    0.0000 C   0  0  0  0  0  0  0  0  0  0  0  0
  1  2  1  0  0  0  0
  2  3  4  0  0  0  0
  3  4  4  0  0  0  0
  4  5  1  0  0  0  0
  5  6  1  0  0  0  0
  6  7  2  0  0  0  0
  6  8  1  0  0  0  0
  8  9  4  0  0  0  0
  9 10  1  0  0  0  0
  9 11  4  0  0  0  0
 11 12  4  0  0  0  0
 12 13  4  0  0  0  0
 13 14  4  0  0  0  0
 14 15  4  0  0  0  0
 15 16  4  0  0  0  0
 16 17  4  0  0  0  0
  8 17  4  0  0  0  0
 12 17  4  0  0  0  0
  4 18  4  0  0  0  0
 18 19  4  0  0  0  0
 19 20  4  0  0  0  0
  2 20  4  0  0  0  0
 20 21  1  0  0  0  0
 21 22  1  0  0  0  0
 22 23  4  0  0  0  0
 23 24  4  0  0  0  0
 24 25  4  0  0  0  0
 25 26  4  0  0  0  0
 26 27  4  0  0  0  0
 22 27  4  0  0  0  0
M  END
> <IC50(uM)>
0.48

> <Outcome>
1.0

> <BindingDB ID>
50990481

> <BindingDB MonomerID>
50281168

> <BindingDB Ligand Name>
CHEMBL4167855

> <Curation/DataSource>
ChEMBL

> <Article DOI>
10.1021/acs.jmedchem.8b00373

> <PMID>
29939742

> <Patent Number>
?

> <Authors>
Sainas, S; Pippione, AC; Lupino, E; Giorgis, M; Circosta, P; Gaidano, V; Goyal, P; Bonanni, D; Rolando, B; Cignetti, A; Ducime, A; Andersson, M; J??rv??, M; Friemann, R; Piccinini, M; Ramondetti, C; Buccinn??, B; Al-Karadaghi, S; Boschi, D; Saglio, G; Lolli, ML

> <Link to Ligand in BindingDB>
http://www.bindingdb.org/bind/chemsearch/marvin/MolStructure.jsp?monomerid=50281168

> <Link to Ligand-Target Pair in BindingDB>
http://www.bindingdb.org/jsp/dbsearch/PrimarySearch_ki.jsp?energyterm=kJ/mole&tag=r21&monomerid=50281168&enzyme=Dihydroorotate+dehydrogenase&column=ki&startPg=0&Increment=50&submit=Search

> <PubChem CID>
145954585

> <PubChem SID>
104122872

$$$$

  Mrv2115 07222212352D          

 38 42  0  0  0  0            999 V2000
   -0.1712   -0.6979    0.0000 C   0  0  0  0  0  0  0  0  0  0  0  0
    0.6538   -0.6979    0.0000 C   0  0  0  0  0  0  0  0  0  0  0  0
    1.1387   -0.0305    0.0000 N   0  0  0  0  0  0  0  0  0  0  0  0
    1.9233   -0.2854    0.0000 C   0  0  0  0  0  0  0  0  0  0  0  0
    2.6378    0.1271    0.0000 C   0  0  0  0  0  0  0  0  0  0  0  0
    2.6378    0.9521    0.0000 C   0  0  0  0  0  0  0  0  0  0  0  0
    3.3523    1.3646    0.0000 O   0  0  0  0  0  0  0  0  0  0  0  0
    1.9233    1.3646    0.0000 O   0  0  0  0  0  0  0  0  0  0  0  0
    3.3523   -0.2854    0.0000 C   0  0  0  0  0  0  0  0  0  0  0  0
    3.3523   -1.1104    0.0000 C   0  0  0  0  0  0  0  0  0  0  0  0
    4.0668   -1.5229    0.0000 C   0  0  0  0  0  0  0  0  0  0  0  0
    4.7812   -1.1104    0.0000 C   0  0  0  0  0  0  0  0  0  0  0  0
    4.7812   -0.2854    0.0000 F   0  0  0  0  0  0  0  0  0  0  0  0
    5.4957   -1.5229    0.0000 C   0  0  0  0  0  0  0  0  0  0  0  0
    6.2102   -1.1104    0.0000 F   0  0  0  0  0  0  0  0  0  0  0  0
    5.4957   -2.3479    0.0000 C   0  0  0  0  0  0  0  0  0  0  0  0
    6.2102   -2.7604    0.0000 C   0  0  0  0  0  0  0  0  0  0  0  0
    6.9246   -2.3479    0.0000 C   0  0  0  0  0  0  0  0  0  0  0  0
    7.6391   -2.7604    0.0000 C   0  0  0  0  0  0  0  0  0  0  0  0
    7.6391   -3.5854    0.0000 C   0  0  0  0  0  0  0  0  0  0  0  0
    8.3536   -3.9979    0.0000 C   0  0  0  0  0  0  0  0  0  0  0  0
    8.3536   -4.8229    0.0000 N   0  0  0  0  0  0  0  0  0  0  0  0
    9.0681   -5.2354    0.0000 C   0  0  0  0  0  0  0  0  0  0  0  0
    9.0681   -6.0604    0.0000 C   0  0  0  0  0  0  0  0  0  0  0  0
    8.3536   -6.4729    0.0000 S   0  0  0  0  0  0  0  0  0  0  0  0
    8.8839   -7.1049    0.0000 O   0  0  0  0  0  0  0  0  0  0  0  0
    7.8233   -7.1049    0.0000 O   0  0  0  0  0  0  0  0  0  0  0  0
    7.6391   -6.0604    0.0000 C   0  0  0  0  0  0  0  0  0  0  0  0
    7.6391   -5.2354    0.0000 C   0  0  0  0  0  0  0  0  0  0  0  0
    6.9246   -3.9979    0.0000 C   0  0  0  0  0  0  0  0  0  0  0  0
    6.2102   -3.5854    0.0000 C   0  0  0  0  0  0  0  0  0  0  0  0
    4.7812   -2.7604    0.0000 C   0  0  0  0  0  0  0  0  0  0  0  0
    4.7812   -3.5854    0.0000 F   0  0  0  0  0  0  0  0  0  0  0  0
    4.0668   -2.3479    0.0000 C   0  0  0  0  0  0  0  0  0  0  0  0
    3.3523   -2.7604    0.0000 F   0  0  0  0  0  0  0  0  0  0  0  0
    2.6378   -1.5229    0.0000 C   0  0  0  0  0  0  0  0  0  0  0  0
    1.9233   -1.1104    0.0000 C   0  0  0  0  0  0  0  0  0  0  0  0
    1.1387   -1.3654    0.0000 N   0  0  0  0  0  0  0  0  0  0  0  0
  1  2  1  0  0  0  0
  2  3  4  0  0  0  0
  3  4  4  0  0  0  0
  4  5  4  0  0  0  0
  5  6  1  0  0  0  0
  6  7  2  0  0  0  0
  6  8  1  0  0  0  0
  5  9  4  0  0  0  0
  9 10  4  0  0  0  0
 10 11  1  0  0  0  0
 11 12  4  0  0  0  0
 12 13  1  0  0  0  0
 12 14  4  0  0  0  0
 14 15  1  0  0  0  0
 14 16  4  0  0  0  0
 16 17  1  0  0  0  0
 17 18  4  0  0  0  0
 18 19  4  0  0  0  0
 19 20  4  0  0  0  0
 20 21  1  0  0  0  0
 21 22  1  0  0  0  0
 22 23  1  0  0  0  0
 23 24  1  0  0  0  0
 24 25  1  0  0  0  0
 25 26  2  0  0  0  0
 25 27  2  0  0  0  0
 25 28  1  0  0  0  0
 28 29  1  0  0  0  0
 22 29  1  0  0  0  0
 20 30  4  0  0  0  0
 30 31  4  0  0  0  0
 17 31  4  0  0  0  0
 16 32  4  0  0  0  0
 32 33  1  0  0  0  0
 32 34  4  0  0  0  0
 11 34  4  0  0  0  0
 34 35  1  0  0  0  0
 10 36  4  0  0  0  0
 36 37  4  0  0  0  0
  4 37  4  0  0  0  0
 37 38  4  0  0  0  0
  2 38  4  0  0  0  0
M  STY  1   1 DAT
M  SAL   1  1  38
M  SDT   1 MRV_IMPLICIT_H                                        
M  SDD   1     0.5304   -0.4125    DR    ALL  0       0  
M  SED   1 IMPL_H1
M  END
> <IC50(uM)>
0.0055

> <Outcome>
1.0

> <BindingDB ID>
1045608

> <BindingDB MonomerID>
501666

> <BindingDB Ligand Name>
US11028054, Example 65

> <Curation/DataSource>
US Patent

> <Article DOI>
?

> <PMID>
?

> <Patent Number>
US11028054

> <Authors>
Thunuguntla, SS; Hosahalli, S; Panigrahi, SK; Schwarz, M; Arit, M

> <Link to Ligand in BindingDB>
http://www.bindingdb.org/bind/chemsearch/marvin/MolStructure.jsp?monomerid=501666

> <Link to Ligand-Target Pair in BindingDB>
http://www.bindingdb.org/jsp/dbsearch/PrimarySearch_ki.jsp?energyterm=kJ/mole&tag=r21&monomerid=501666&enzyme=Dihydroorotate+dehydrogenase&column=ki&startPg=0&Increment=50&submit=Search

> <PubChem CID>
?

> <PubChem SID>
?

$$$$

  Mrv2115 07222212352D          

 33 36  0  0  0  0            999 V2000
   -5.0710    1.6562    0.0000 C   0  0  0  0  0  0  0  0  0  0  0  0
   -4.2640    1.4847    0.0000 C   0  0  0  0  0  0  0  0  0  0  0  0
   -3.6509    2.0367    0.0000 N   0  0  0  0  0  0  0  0  0  0  0  0
   -2.9364    1.6242    0.0000 C   0  0  0  0  0  0  0  0  0  0  0  0
   -3.1079    0.8172    0.0000 N   0  0  0  0  0  0  0  0  0  0  0  0
   -3.9284    0.7310    0.0000 C   0  0  0  0  0  0  0  0  0  0  0  0
   -4.3409    0.0165    0.0000 N   0  0  0  0  0  0  0  0  0  0  0  0
   -3.9284   -0.6979    0.0000 C   0  0  0  0  0  0  0  0  0  0  0  0
   -4.3409   -1.4124    0.0000 O   0  0  0  0  0  0  0  0  0  0  0  0
   -3.1034   -0.6979    0.0000 C   0  0  0  0  0  0  0  0  0  0  0  0
   -2.6909    0.0165    0.0000 C   0  0  0  0  0  0  0  0  0  0  0  0
   -1.8659    0.0165    0.0000 C   0  0  0  0  0  0  0  0  0  0  0  0
   -1.4534    0.7310    0.0000 F   0  0  0  0  0  0  0  0  0  0  0  0
   -1.4534   -0.6979    0.0000 C   0  0  0  0  0  0  0  0  0  0  0  0
   -0.6284   -0.6979    0.0000 N   0  0  0  0  0  0  0  0  0  0  0  0
   -0.1435   -1.3654    0.0000 N   0  0  0  0  0  0  0  0  0  0  0  0
    0.6411   -1.1104    0.0000 C   0  0  0  0  0  0  0  0  0  0  0  0
    0.6411   -0.2854    0.0000 N   0  0  0  0  0  0  0  0  0  0  0  0
   -0.1435   -0.0305    0.0000 C   0  0  0  0  0  0  0  0  0  0  0  0
   -0.3984    0.7541    0.0000 O   0  0  0  0  0  0  0  0  0  0  0  0
    1.3556    0.1271    0.0000 C   0  0  0  0  0  0  0  0  0  0  0  0
    2.0701   -0.2854    0.0000 C   0  0  0  0  0  0  0  0  0  0  0  0
    2.0701   -1.1104    0.0000 C   0  0  0  0  0  0  0  0  0  0  0  0
    1.3556   -1.5229    0.0000 C   0  0  0  0  0  0  0  0  0  0  0  0
   -1.8659   -1.4124    0.0000 C   0  0  0  0  0  0  0  0  0  0  0  0
   -2.6909   -1.4124    0.0000 C   0  0  0  0  0  0  0  0  0  0  0  0
   -3.1034   -2.1269    0.0000 O   0  0  0  0  0  0  0  0  0  0  0  0
   -2.6909   -2.8414    0.0000 C   0  0  0  0  0  0  0  0  0  0  0  0
   -1.8659   -2.8414    0.0000 C   0  0  0  0  0  0  0  0  0  0  0  0
   -3.1034   -3.5558    0.0000 C   0  0  0  0  0  0  0  0  0  0  0  0
   -3.8179   -3.1433    0.0000 F   0  0  0  0  0  0  0  0  0  0  0  0
   -2.3890   -3.9683    0.0000 F   0  0  0  0  0  0  0  0  0  0  0  0
   -3.5159   -4.2703    0.0000 F   0  0  0  0  0  0  0  0  0  0  0  0
  1  2  1  0  0  0  0
  2  3  4  0  0  0  0
  3  4  4  0  0  0  0
  4  5  4  0  0  0  0
  5  6  4  0  0  0  0
  2  6  4  0  0  0  0
  6  7  1  0  0  0  0
  7  8  1  0  0  0  0
  8  9  2  0  0  0  0
  8 10  1  0  0  0  0
 10 11  4  0  0  0  0
 11 12  4  0  0  0  0
 12 13  1  0  0  0  0
 12 14  4  0  0  0  0
 14 15  1  0  0  0  0
 15 16  4  0  0  0  0
 16 17  4  0  0  0  0
 17 18  4  0  0  0  0
 18 19  4  0  0  0  0
 15 19  4  0  0  0  0
 19 20  2  0  0  0  0
 18 21  1  0  0  0  0
 21 22  1  0  0  0  0
 22 23  1  0  0  0  0
 23 24  1  0  0  0  0
 17 24  1  0  0  0  0
 14 25  4  0  0  0  0
 25 26  4  0  0  0  0
 10 26  4  0  0  0  0
 26 27  1  0  0  0  0
 27 28  1  0  0  0  0
 28 29  1  0  0  0  0
 28 30  1  0  0  0  0
 30 31  1  0  0  0  0
 30 32  1  0  0  0  0
 30 33  1  0  0  0  0
M  STY  1   1 DAT
M  SAL   1  1   5
M  SDT   1 MRV_IMPLICIT_H                                        
M  SDD   1     0.5304   -0.4125    DR    ALL  0       0  
M  SED   1 IMPL_H1
M  END
> <IC50(uM)>
0.46

> <Outcome>
1.0

> <BindingDB ID>
1020423

> <BindingDB MonomerID>
490374

> <BindingDB Ligand Name>
5-fluoro-N-(4-methyl-1H-imidazol-5-yl)-4-(3-oxo-5,6,7,8-tetrahydro[1,2,4]triazolo[4,3-a]pyridin-2(3H)-yl)-2-{[(2S)-1,1,1-trifluoropropan-2-yl]oxy}benzamide::US10968216, Example 42

> <Curation/DataSource>
US Patent

> <Article DOI>
?

> <PMID>
?

> <Patent Number>
US10968216

> <Authors>
Gradl, SN; Nguyen, D; Eis, K; Gunther, J; Stellfeld, T; Janzer, A; Christian, S; Mueller, T; Sheikh, SE; Zhou, HJ; Zhao, C; Sykes, DB; Ferrara, SJ; Liu, K; Herbert, SA; Merz, C; Niehues, M; Nising, CF; Schafer, M; Zimmermann, K; Knablein, J; Thede, K; Faupel, T

> <Link to Ligand in BindingDB>
http://www.bindingdb.org/bind/chemsearch/marvin/MolStructure.jsp?monomerid=490374

> <Link to Ligand-Target Pair in BindingDB>
http://www.bindingdb.org/jsp/dbsearch/PrimarySearch_ki.jsp?energyterm=kJ/mole&tag=r21&monomerid=490374&enzyme=Dihydroorotate+dehydrogenase&column=ki&startPg=0&Increment=50&submit=Search

> <PubChem CID>
134474098

> <PubChem SID>
447117101

$$$$

  Mrv2115 07222212352D          

 24 26  0  0  0  0            999 V2000
    4.0668    2.3479    0.0000 C   0  0  0  0  0  0  0  0  0  0  0  0
    3.3523    1.9354    0.0000 C   0  0  0  0  0  0  0  0  0  0  0  0
    3.3523    1.1104    0.0000 C   0  0  0  0  0  0  0  0  0  0  0  0
    2.6378    0.6979    0.0000 C   0  0  0  0  0  0  0  0  0  0  0  0
    2.6378   -0.1271    0.0000 N   0  0  0  0  0  0  0  0  0  0  0  0
    3.3523   -0.5396    0.0000 C   0  0  0  0  0  0  0  0  0  0  0  0
    4.0668   -0.1271    0.0000 C   0  0  0  0  0  0  0  0  0  0  0  0
    4.7812   -0.5396    0.0000 C   0  0  0  0  0  0  0  0  0  0  0  0
    4.7812   -1.3646    0.0000 C   0  0  0  0  0  0  0  0  0  0  0  0
    5.4957   -1.7771    0.0000 C   0  0  0  0  0  0  0  0  0  0  0  0
    6.2102   -2.1896    0.0000 F   0  0  0  0  0  0  0  0  0  0  0  0
    5.9082   -1.0626    0.0000 F   0  0  0  0  0  0  0  0  0  0  0  0
    5.0832   -2.4915    0.0000 F   0  0  0  0  0  0  0  0  0  0  0  0
    4.0668   -1.7771    0.0000 C   0  0  0  0  0  0  0  0  0  0  0  0
    3.3523   -1.3646    0.0000 C   0  0  0  0  0  0  0  0  0  0  0  0
    1.9233    1.1104    0.0000 N   0  0  0  0  0  0  0  0  0  0  0  0
    1.1387    0.8555    0.0000 N   0  0  0  0  0  0  0  0  0  0  0  0
    0.6538    1.5229    0.0000 C   0  0  0  0  0  0  0  0  0  0  0  0
   -0.1712    1.5229    0.0000 C   0  0  0  0  0  0  0  0  0  0  0  0
   -0.5837    0.8085    0.0000 C   0  0  0  0  0  0  0  0  0  0  0  0
   -0.5837    2.2374    0.0000 C   0  0  0  0  0  0  0  0  0  0  0  0
    1.1387    2.1904    0.0000 N   0  0  0  0  0  0  0  0  0  0  0  0
    1.9233    1.9354    0.0000 C   0  0  0  0  0  0  0  0  0  0  0  0
    2.6378    2.3479    0.0000 N   0  0  0  0  0  0  0  0  0  0  0  0
  1  2  1  0  0  0  0
  2  3  4  0  0  0  0
  3  4  4  0  0  0  0
  4  5  1  0  0  0  0
  5  6  1  0  0  0  0
  6  7  4  0  0  0  0
  7  8  4  0  0  0  0
  8  9  4  0  0  0  0
  9 10  1  0  0  0  0
 10 11  1  0  0  0  0
 10 12  1  0  0  0  0
 10 13  1  0  0  0  0
  9 14  4  0  0  0  0
 14 15  4  0  0  0  0
  6 15  4  0  0  0  0
  4 16  4  0  0  0  0
 16 17  4  0  0  0  0
 17 18  4  0  0  0  0
 18 19  1  0  0  0  0
 19 20  1  0  0  0  0
 19 21  1  0  0  0  0
 18 22  4  0  0  0  0
 22 23  4  0  0  0  0
 16 23  4  0  0  0  0
 23 24  4  0  0  0  0
  2 24  4  0  0  0  0
M  END
> <IC50(uM)>
100.0

> <Outcome>
0.0

> <BindingDB ID>
50720172

> <BindingDB MonomerID>
50365242

> <BindingDB Ligand Name>
CHEMBL1956268::US9238653, Table 5, Compound 45

> <Curation/DataSource>
ChEMBL

> <Article DOI>
10.1021/jm200592f

> <PMID>
21696174

> <Patent Number>
?

> <Authors>
Coteron, JM; Marco, M; Esquivias, J; Deng, X; White, KL; White, J; Koltun, M; El Mazouni, F; Kokkonda, S; Katneni, K; Bhamidipati, R; Shackleford, DM; Angulo-Barturen, I; Ferrer, SB; Jimenez-Diaz, MB; Gamo, FJ; Goldsmith, EJ; Charman, WN; Bathurst, I; Floyd, D; Matthews, D; Burrows, JN; Rathod, PK; Charman, SA; Phillips, MA

> <Link to Ligand in BindingDB>
http://www.bindingdb.org/bind/chemsearch/marvin/MolStructure.jsp?monomerid=50365242

> <Link to Ligand-Target Pair in BindingDB>
http://www.bindingdb.org/jsp/dbsearch/PrimarySearch_ki.jsp?energyterm=kJ/mole&tag=r21&monomerid=50365242&enzyme=Dihydroorotate+dehydrogenase&column=ki&startPg=0&Increment=50&submit=Search

> <PubChem CID>
51347541

> <PubChem SID>
136969304

$$$$

  Mrv2115 07222212352D          

 21 22  0  0  0  0            999 V2000
    3.4656    1.1759    0.0000 C   0  0  0  0  0  0  0  0  0  0  0  0
    2.7512    0.7634    0.0000 C   0  0  0  0  0  0  0  0  0  0  0  0
    2.7512   -0.0616    0.0000 O   0  0  0  0  0  0  0  0  0  0  0  0
    2.0367   -0.4741    0.0000 C   0  0  0  0  0  0  0  0  0  0  0  0
    1.3222   -0.0616    0.0000 O   0  0  0  0  0  0  0  0  0  0  0  0
    2.0367   -1.2991    0.0000 C   0  0  0  0  0  0  0  0  0  0  0  0
    2.7041   -1.7840    0.0000 N   0  0  0  0  0  0  0  0  0  0  0  0
    2.4492   -2.5687    0.0000 C   0  0  0  0  0  0  0  0  0  0  0  0
    2.9341   -3.2361    0.0000 C   0  0  0  0  0  0  0  0  0  0  0  0
    1.6242   -2.5687    0.0000 C   0  0  0  0  0  0  0  0  0  0  0  0
    1.1393   -3.2361    0.0000 C   0  0  0  0  0  0  0  0  0  0  0  0
    0.3188   -3.1499    0.0000 C   0  0  0  0  0  0  0  0  0  0  0  0
   -0.1661   -3.8173    0.0000 C   0  0  0  0  0  0  0  0  0  0  0  0
   -0.9866   -3.7311    0.0000 C   0  0  0  0  0  0  0  0  0  0  0  0
   -1.3222   -2.9774    0.0000 C   0  0  0  0  0  0  0  0  0  0  0  0
   -2.1426   -2.8911    0.0000 O   0  0  0  0  0  0  0  0  0  0  0  0
   -2.6276   -3.5586    0.0000 C   0  0  0  0  0  0  0  0  0  0  0  0
   -0.8372   -2.3099    0.0000 C   0  0  0  0  0  0  0  0  0  0  0  0
   -0.0168   -2.3962    0.0000 C   0  0  0  0  0  0  0  0  0  0  0  0
    1.3693   -1.7840    0.0000 C   0  0  0  0  0  0  0  0  0  0  0  0
    0.5846   -1.5291    0.0000 C   0  0  0  0  0  0  0  0  0  0  0  0
  1  2  1  0  0  0  0
  2  3  1  0  0  0  0
  3  4  1  0  0  0  0
  4  5  2  0  0  0  0
  4  6  1  0  0  0  0
  6  7  4  0  0  0  0
  7  8  4  0  0  0  0
  8  9  1  0  0  0  0
  8 10  4  0  0  0  0
 10 11  1  0  0  0  0
 11 12  1  0  0  0  0
 12 13  4  0  0  0  0
 13 14  4  0  0  0  0
 14 15  4  0  0  0  0
 15 16  1  0  0  0  0
 16 17  1  0  0  0  0
 15 18  4  0  0  0  0
 18 19  4  0  0  0  0
 12 19  4  0  0  0  0
 10 20  4  0  0  0  0
  6 20  4  0  0  0  0
 20 21  1  0  0  0  0
M  STY  1   1 DAT
M  SAL   1  1   7
M  SDT   1 MRV_IMPLICIT_H                                        
M  SDD   1     0.5304   -0.4125    DR    ALL  0       0  
M  SED   1 IMPL_H1
M  END
> <IC50(uM)>
100.0

> <Outcome>
0.0

> <BindingDB ID>
51330080

> <BindingDB MonomerID>
50538328

> <BindingDB Ligand Name>
CHEMBL4649039

> <Curation/DataSource>
ChEMBL

> <Article DOI>
10.1021/acs.jmedchem.0c00311

> <PMID>
32248693

> <Patent Number>
?

> <Authors>
Kokkonda, S; Deng, X; White, KL; El Mazouni, F; White, J; Shackleford, DM; Katneni, K; Chiu, FCK; Barker, H; McLaren, J; Crighton, E; Chen, G; Angulo-Barturen, I; Jimenez-Diaz, MB; Ferrer, S; Huertas-Valentin, L; Martinez-Martinez, MS; Lafuente-Monasterio, MJ; Chittimalla, R; Shahi, SP; Wittlin, S; Waterson, D; Burrows, JN; Matthews, D; Tomchick, D; Rathod, PK; Palmer, MJ; Charman, SA; Phillips, MA

> <Link to Ligand in BindingDB>
http://www.bindingdb.org/bind/chemsearch/marvin/MolStructure.jsp?monomerid=50538328

> <Link to Ligand-Target Pair in BindingDB>
http://www.bindingdb.org/jsp/dbsearch/PrimarySearch_ki.jsp?energyterm=kJ/mole&tag=r21&monomerid=50538328&enzyme=Dihydroorotate+dehydrogenase&column=ki&startPg=0&Increment=50&submit=Search

> <PubChem CID>
156020772

> <PubChem SID>
442139891

$$$$

  Mrv2115 07222212352D          

 27 29  0  0  0  0            999 V2000
    5.0013   -1.2375    0.0000 O   0  0  0  0  0  0  0  0  0  0  0  0
    4.2868   -0.8250    0.0000 C   0  0  0  0  0  0  0  0  0  0  0  0
    3.5724   -1.2375    0.0000 O   0  0  0  0  0  0  0  0  0  0  0  0
    4.2868    0.0000    0.0000 C   0  0  0  0  0  0  0  0  0  0  0  0
    3.5724    0.4125    0.0000 N   0  0  0  0  0  0  0  0  0  0  0  0
    3.5724    1.2375    0.0000 C   0  0  0  0  0  0  0  0  0  0  0  0
    2.8579    1.6500    0.0000 O   0  0  0  0  0  0  0  0  0  0  0  0
    4.2868    1.6500    0.0000 N   0  0  0  0  0  0  0  0  0  0  0  0
    5.0013    1.2375    0.0000 C   0  0  0  0  0  0  0  0  0  0  0  0
    5.7158    1.6500    0.0000 O   0  0  0  0  0  0  0  0  0  0  0  0
    5.0013    0.4125    0.0000 C   0  0  0  0  0  0  0  0  0  0  0  0
    5.7158    0.0000    0.0000 C   0  0  0  0  0  0  0  0  0  0  0  0
    6.4302    0.4125    0.0000 C   0  0  0  0  0  0  0  0  0  0  0  0
    7.1447    0.0000    0.0000 C   0  0  0  0  0  0  0  0  0  0  0  0
    7.8592    0.4125    0.0000 N   0  0  0  0  0  0  0  0  0  0  0  0
    8.5737    0.0000    0.0000 C   0  0  0  0  0  0  0  0  0  0  0  0
    8.5737   -0.8250    0.0000 O   0  0  0  0  0  0  0  0  0  0  0  0
    9.2881    0.4125    0.0000 C   0  0  0  0  0  0  0  0  0  0  0  0
    9.2881    1.2375    0.0000 C   0  0  0  0  0  0  0  0  0  0  0  0
   10.0026    1.6500    0.0000 C   0  0  0  0  0  0  0  0  0  0  0  0
   10.7171    1.2375    0.0000 C   0  0  0  0  0  0  0  0  0  0  0  0
   10.7171    0.4125    0.0000 C   0  0  0  0  0  0  0  0  0  0  0  0
   11.4315    0.0000    0.0000 C   0  0  0  0  0  0  0  0  0  0  0  0
   11.4315   -0.8250    0.0000 C   0  0  0  0  0  0  0  0  0  0  0  0
   10.7171   -1.2375    0.0000 C   0  0  0  0  0  0  0  0  0  0  0  0
   10.0026   -0.8250    0.0000 C   0  0  0  0  0  0  0  0  0  0  0  0
   10.0026    0.0000    0.0000 C   0  0  0  0  0  0  0  0  0  0  0  0
  1  2  2  0  0  0  0
  2  3  1  0  0  0  0
  2  4  1  0  0  0  0
  4  5  4  0  0  0  0
  5  6  4  0  0  0  0
  6  7  2  0  0  0  0
  6  8  4  0  0  0  0
  8  9  4  0  0  0  0
  9 10  2  0  0  0  0
  9 11  4  0  0  0  0
  4 11  4  0  0  0  0
 11 12  1  0  0  0  0
 12 13  1  0  0  0  0
 13 14  1  0  0  0  0
 14 15  1  0  0  0  0
 15 16  1  0  0  0  0
 16 17  2  0  0  0  0
 16 18  1  0  0  0  0
 18 19  4  0  0  0  0
 19 20  4  0  0  0  0
 20 21  4  0  0  0  0
 21 22  4  0  0  0  0
 22 23  4  0  0  0  0
 23 24  4  0  0  0  0
 24 25  4  0  0  0  0
 25 26  4  0  0  0  0
 26 27  4  0  0  0  0
 18 27  4  0  0  0  0
 22 27  4  0  0  0  0
M  STY  2   1 DAT   2 DAT
M  SAL   1  1   5
M  SDT   1 MRV_IMPLICIT_H                                        
M  SDD   1     0.5304   -0.4125    DR    ALL  0       0  
M  SED   1 IMPL_H1
M  SAL   2  1   8
M  SDT   2 MRV_IMPLICIT_H                                        
M  SDD   2     0.6482   -0.4125    DR    ALL  0       0  
M  SED   2 IMPL_H1
M  END
> <IC50(uM)>
1.25

> <Outcome>
0.0

> <BindingDB ID>
50555426

> <BindingDB MonomerID>
50211953

> <BindingDB Ligand Name>
CHEMBL3900846

> <Curation/DataSource>
ChEMBL

> <Article DOI>
10.1016/j.bmc.2017.01.009

> <PMID>
28118956

> <Patent Number>
?

> <Authors>
Inaoka, DK; Iida, M; Hashimoto, S; Tabuchi, T; Kuranaga, T; Balogun, EO; Honma, T; Tanaka, A; Harada, S; Nara, T; Kita, K; Inoue, M

> <Link to Ligand in BindingDB>
http://www.bindingdb.org/bind/chemsearch/marvin/MolStructure.jsp?monomerid=50211953

> <Link to Ligand-Target Pair in BindingDB>
http://www.bindingdb.org/jsp/dbsearch/PrimarySearch_ki.jsp?energyterm=kJ/mole&tag=r21&monomerid=50211953&enzyme=Dihydroorotate+dehydrogenase&column=ki&startPg=0&Increment=50&submit=Search

> <PubChem CID>
134133820

> <PubChem SID>
375983076

$$$$

  Mrv2115 07222212352D          

 28 32  0  0  0  0            999 V2000
    3.3523   -0.2854    0.0000 O   0  0  0  0  0  0  0  0  0  0  0  0
    3.3523   -1.1104    0.0000 C   0  0  0  0  0  0  0  0  0  0  0  0
    4.0668   -1.5229    0.0000 C   0  0  0  0  0  0  0  0  0  0  0  0
    4.7812   -1.1104    0.0000 C   0  0  0  0  0  0  0  0  0  0  0  0
    5.4957   -1.5229    0.0000 C   0  0  0  0  0  0  0  0  0  0  0  0
    5.4957   -2.3479    0.0000 C   0  0  0  0  0  0  0  0  0  0  0  0
    4.7812   -2.7604    0.0000 C   0  0  0  0  0  0  0  0  0  0  0  0
    4.0668   -2.3479    0.0000 C   0  0  0  0  0  0  0  0  0  0  0  0
    3.3523   -2.7604    0.0000 C   0  0  0  0  0  0  0  0  0  0  0  0
    3.3523   -3.5854    0.0000 O   0  0  0  0  0  0  0  0  0  0  0  0
    2.6378   -2.3479    0.0000 C   0  0  0  0  0  0  0  0  0  0  0  0
    2.6378   -1.5229    0.0000 C   0  0  0  0  0  0  0  0  0  0  0  0
    1.8532   -1.2680    0.0000 N   0  0  0  0  0  0  0  0  0  0  0  0
    1.3683   -1.9354    0.0000 N   0  0  0  0  0  0  0  0  0  0  0  0
    1.8532   -2.6029    0.0000 N   0  0  0  0  0  0  0  0  0  0  0  0
    1.5983   -3.3875    0.0000 C   0  0  0  0  0  0  0  0  0  0  0  0
    2.1503   -4.0006    0.0000 C   0  0  0  0  0  0  0  0  0  0  0  0
    1.8953   -4.7852    0.0000 C   0  0  0  0  0  0  0  0  0  0  0  0
    1.0884   -4.9567    0.0000 C   0  0  0  0  0  0  0  0  0  0  0  0
    0.8334   -5.7414    0.0000 C   0  0  0  0  0  0  0  0  0  0  0  0
    1.3855   -6.3545    0.0000 C   0  0  0  0  0  0  0  0  0  0  0  0
    1.1305   -7.1391    0.0000 C   0  0  0  0  0  0  0  0  0  0  0  0
    0.3236   -7.3106    0.0000 C   0  0  0  0  0  0  0  0  0  0  0  0
   -0.2285   -6.6975    0.0000 C   0  0  0  0  0  0  0  0  0  0  0  0
   -1.0354   -6.8690    0.0000 F   0  0  0  0  0  0  0  0  0  0  0  0
    0.0265   -5.9129    0.0000 C   0  0  0  0  0  0  0  0  0  0  0  0
    0.5363   -4.3437    0.0000 C   0  0  0  0  0  0  0  0  0  0  0  0
    0.7913   -3.5590    0.0000 C   0  0  0  0  0  0  0  0  0  0  0  0
  1  2  2  0  0  0  0
  2  3  1  0  0  0  0
  3  4  4  0  0  0  0
  4  5  4  0  0  0  0
  5  6  4  0  0  0  0
  6  7  4  0  0  0  0
  7  8  4  0  0  0  0
  3  8  4  0  0  0  0
  8  9  1  0  0  0  0
  9 10  2  0  0  0  0
  9 11  1  0  0  0  0
 11 12  4  0  0  0  0
  2 12  1  0  0  0  0
 12 13  4  0  0  0  0
 13 14  4  0  0  0  0
 14 15  4  0  0  0  0
 11 15  4  0  0  0  0
 15 16  1  0  0  0  0
 16 17  4  0  0  0  0
 17 18  4  0  0  0  0
 18 19  4  0  0  0  0
 19 20  1  0  0  0  0
 20 21  4  0  0  0  0
 21 22  4  0  0  0  0
 22 23  4  0  0  0  0
 23 24  4  0  0  0  0
 24 25  1  0  0  0  0
 24 26  4  0  0  0  0
 20 26  4  0  0  0  0
 19 27  4  0  0  0  0
 27 28  4  0  0  0  0
 16 28  4  0  0  0  0
M  END
> <IC50(uM)>
0.056

> <Outcome>
1.0

> <BindingDB ID>
51338189

> <BindingDB MonomerID>
50541663

> <BindingDB Ligand Name>
CHEMBL4645170

> <Curation/DataSource>
ChEMBL

> <Article DOI>
10.1021/acs.jmedchem.0c00512

> <PMID>
32496056

> <Patent Number>
?

> <Authors>
Zuo, Z; Liu, X; Qian, X; Zeng, T; Sang, N; Liu, H; Zhou, Y; Tao, L; Zhou, X; Su, N; Yu, Y; Chen, Q; Luo, Y; Zhao, Y

> <Link to Ligand in BindingDB>
http://www.bindingdb.org/bind/chemsearch/marvin/MolStructure.jsp?monomerid=50541663

> <Link to Ligand-Target Pair in BindingDB>
http://www.bindingdb.org/jsp/dbsearch/PrimarySearch_ki.jsp?energyterm=kJ/mole&tag=r21&monomerid=50541663&enzyme=Dihydroorotate+dehydrogenase&column=ki&startPg=0&Increment=50&submit=Search

> <PubChem CID>
156018626

> <PubChem SID>
442143226

$$$$

  Mrv2115 07222212352D          

 24 26  0  0  0  0            999 V2000
    1.8845   -1.8927    0.0000 C   0  0  0  0  0  0  0  0  0  0  0  0
    2.6691   -1.6377    0.0000 C   0  0  0  0  0  0  0  0  0  0  0  0
    2.9240   -0.8531    0.0000 C   0  0  0  0  0  0  0  0  0  0  0  0
    2.4391   -0.1857    0.0000 C   0  0  0  0  0  0  0  0  0  0  0  0
    2.7747    0.5680    0.0000 C   0  0  0  0  0  0  0  0  0  0  0  0
    2.2898    1.2354    0.0000 C   0  0  0  0  0  0  0  0  0  0  0  0
    2.6253    1.9891    0.0000 C   0  0  0  0  0  0  0  0  0  0  0  0
    3.4458    2.0753    0.0000 C   0  0  0  0  0  0  0  0  0  0  0  0
    3.7814    2.8290    0.0000 C   0  0  0  0  0  0  0  0  0  0  0  0
    4.1169    3.5827    0.0000 F   0  0  0  0  0  0  0  0  0  0  0  0
    3.0277    3.1646    0.0000 F   0  0  0  0  0  0  0  0  0  0  0  0
    4.5350    2.4935    0.0000 F   0  0  0  0  0  0  0  0  0  0  0  0
    3.9307    1.4079    0.0000 N   0  0  0  0  0  0  0  0  0  0  0  0
    3.5952    0.6542    0.0000 C   0  0  0  0  0  0  0  0  0  0  0  0
    3.7490   -0.8531    0.0000 C   0  0  0  0  0  0  0  0  0  0  0  0
    4.0040   -1.6377    0.0000 N   0  0  0  0  0  0  0  0  0  0  0  0
    3.3365   -2.1227    0.0000 C   0  0  0  0  0  0  0  0  0  0  0  0
    3.3365   -2.9477    0.0000 C   0  0  0  0  0  0  0  0  0  0  0  0
    2.6221   -3.3602    0.0000 O   0  0  0  0  0  0  0  0  0  0  0  0
    4.0510   -3.3602    0.0000 N   0  0  0  0  0  0  0  0  0  0  0  0
    4.0510   -4.1852    0.0000 C   0  0  0  0  0  0  0  0  0  0  0  0
    4.6344   -4.7685    0.0000 C   0  0  0  0  0  0  0  0  0  0  0  0
    4.0510   -5.3519    0.0000 C   0  0  0  0  0  0  0  0  0  0  0  0
    3.4677   -4.7685    0.0000 C   0  0  0  0  0  0  0  0  0  0  0  0
  1  2  1  0  0  0  0
  2  3  4  0  0  0  0
  3  4  1  0  0  0  0
  4  5  1  0  0  0  0
  5  6  4  0  0  0  0
  6  7  4  0  0  0  0
  7  8  4  0  0  0  0
  8  9  1  0  0  0  0
  9 10  1  0  0  0  0
  9 11  1  0  0  0  0
  9 12  1  0  0  0  0
  8 13  4  0  0  0  0
 13 14  4  0  0  0  0
  5 14  4  0  0  0  0
  3 15  4  0  0  0  0
 15 16  4  0  0  0  0
 16 17  4  0  0  0  0
  2 17  4  0  0  0  0
 17 18  1  0  0  0  0
 18 19  2  0  0  0  0
 18 20  1  0  0  0  0
 20 21  1  0  0  0  0
 21 22  1  0  0  0  0
 22 23  1  0  0  0  0
 23 24  1  0  0  0  0
 21 24  1  0  0  0  0
M  STY  1   1 DAT
M  SAL   1  1  16
M  SDT   1 MRV_IMPLICIT_H                                        
M  SDD   1     0.5304   -0.4125    DR    ALL  0       0  
M  SED   1 IMPL_H1
M  END
> <IC50(uM)>
100.0

> <Outcome>
0.0

> <BindingDB ID>
51330105

> <BindingDB MonomerID>
50538353

> <BindingDB Ligand Name>
CHEMBL4639663

> <Curation/DataSource>
ChEMBL

> <Article DOI>
10.1021/acs.jmedchem.0c00311

> <PMID>
32248693

> <Patent Number>
?

> <Authors>
Kokkonda, S; Deng, X; White, KL; El Mazouni, F; White, J; Shackleford, DM; Katneni, K; Chiu, FCK; Barker, H; McLaren, J; Crighton, E; Chen, G; Angulo-Barturen, I; Jimenez-Diaz, MB; Ferrer, S; Huertas-Valentin, L; Martinez-Martinez, MS; Lafuente-Monasterio, MJ; Chittimalla, R; Shahi, SP; Wittlin, S; Waterson, D; Burrows, JN; Matthews, D; Tomchick, D; Rathod, PK; Palmer, MJ; Charman, SA; Phillips, MA

> <Link to Ligand in BindingDB>
http://www.bindingdb.org/bind/chemsearch/marvin/MolStructure.jsp?monomerid=50538353

> <Link to Ligand-Target Pair in BindingDB>
http://www.bindingdb.org/jsp/dbsearch/PrimarySearch_ki.jsp?energyterm=kJ/mole&tag=r21&monomerid=50538353&enzyme=Dihydroorotate+dehydrogenase&column=ki&startPg=0&Increment=50&submit=Search

> <PubChem CID>
156013522

> <PubChem SID>
442139916

$$$$

  Mrv2115 07222212352D          

 33 37  0  0  0  0            999 V2000
    3.9934    2.4750    0.0000 N   0  0  0  0  0  0  0  0  0  0  0  0
    3.2789    2.0625    0.0000 C   0  0  0  0  0  0  0  0  0  0  0  0
    2.5645    2.4750    0.0000 O   0  0  0  0  0  0  0  0  0  0  0  0
    3.2789    1.2375    0.0000 C   0  0  0  0  0  0  0  0  0  0  0  0
    3.9934    0.8250    0.0000 C   0  0  0  0  0  0  0  0  0  0  0  0
    3.9934    0.0000    0.0000 C   0  0  0  0  0  0  0  0  0  0  0  0
    4.7079   -0.4125    0.0000 F   0  0  0  0  0  0  0  0  0  0  0  0
    3.2789   -0.4125    0.0000 C   0  0  0  0  0  0  0  0  0  0  0  0
    2.5645    0.0000    0.0000 C   0  0  0  0  0  0  0  0  0  0  0  0
    1.7798   -0.2549    0.0000 N   0  0  0  0  0  0  0  0  0  0  0  0
    1.2949    0.4125    0.0000 C   0  0  0  0  0  0  0  0  0  0  0  0
    0.4699    0.4125    0.0000 C   0  0  0  0  0  0  0  0  0  0  0  0
    0.0574   -0.3020    0.0000 C   0  0  0  0  0  0  0  0  0  0  0  0
   -0.7676   -0.3020    0.0000 C   0  0  0  0  0  0  0  0  0  0  0  0
   -1.1801    0.4125    0.0000 C   0  0  0  0  0  0  0  0  0  0  0  0
   -2.0051    0.4125    0.0000 C   0  0  0  0  0  0  0  0  0  0  0  0
   -2.4176   -0.3020    0.0000 C   0  0  0  0  0  0  0  0  0  0  0  0
   -3.2426   -0.3020    0.0000 C   0  0  0  0  0  0  0  0  0  0  0  0
   -3.6551    0.4125    0.0000 C   0  0  0  0  0  0  0  0  0  0  0  0
   -4.4801    0.4125    0.0000 N   0  0  0  0  0  0  0  0  0  0  0  0
   -4.8926   -0.3020    0.0000 C   0  0  0  0  0  0  0  0  0  0  0  0
   -4.4801   -1.0164    0.0000 O   0  0  0  0  0  0  0  0  0  0  0  0
   -5.7176   -0.3020    0.0000 C   0  0  0  0  0  0  0  0  0  0  0  0
   -6.4321   -0.7145    0.0000 C   0  0  0  0  0  0  0  0  0  0  0  0
   -6.4321    0.1105    0.0000 C   0  0  0  0  0  0  0  0  0  0  0  0
   -3.2426    1.1270    0.0000 C   0  0  0  0  0  0  0  0  0  0  0  0
   -2.4176    1.1270    0.0000 C   0  0  0  0  0  0  0  0  0  0  0  0
   -2.0051    1.8414    0.0000 F   0  0  0  0  0  0  0  0  0  0  0  0
   -0.7676    1.1270    0.0000 C   0  0  0  0  0  0  0  0  0  0  0  0
    0.0574    1.1270    0.0000 C   0  0  0  0  0  0  0  0  0  0  0  0
    0.4699    1.8414    0.0000 F   0  0  0  0  0  0  0  0  0  0  0  0
    1.7798    1.0799    0.0000 N   0  0  0  0  0  0  0  0  0  0  0  0
    2.5645    0.8250    0.0000 C   0  0  0  0  0  0  0  0  0  0  0  0
  1  2  1  0  0  0  0
  2  3  2  0  0  0  0
  2  4  1  0  0  0  0
  4  5  4  0  0  0  0
  5  6  4  0  0  0  0
  6  7  1  0  0  0  0
  6  8  4  0  0  0  0
  8  9  4  0  0  0  0
  9 10  4  0  0  0  0
 10 11  4  0  0  0  0
 11 12  1  0  0  0  0
 12 13  4  0  0  0  0
 13 14  4  0  0  0  0
 14 15  4  0  0  0  0
 15 16  1  0  0  0  0
 16 17  4  0  0  0  0
 17 18  4  0  0  0  0
 18 19  4  0  0  0  0
 19 20  1  0  0  0  0
 20 21  1  0  0  0  0
 21 22  2  0  0  0  0
 21 23  1  0  0  0  0
 23 24  1  0  0  0  0
 24 25  1  0  0  0  0
 23 25  1  0  0  0  0
 19 26  4  0  0  0  0
 26 27  4  0  0  0  0
 16 27  4  0  0  0  0
 27 28  1  0  0  0  0
 15 29  4  0  0  0  0
 29 30  4  0  0  0  0
 12 30  4  0  0  0  0
 30 31  1  0  0  0  0
 11 32  4  0  0  0  0
 32 33  4  0  0  0  0
  4 33  4  0  0  0  0
  9 33  4  0  0  0  0
M  STY  1   1 DAT
M  SAL   1  1  10
M  SDT   1 MRV_IMPLICIT_H                                        
M  SDD   1     0.5304   -0.4125    DR    ALL  0       0  
M  SED   1 IMPL_H1
M  END
> <IC50(uM)>
48.0

> <Outcome>
0.0

> <BindingDB ID>
50358225

> <BindingDB MonomerID>
50096149

> <BindingDB Ligand Name>
CHEMBL3593993

> <Curation/DataSource>
ChEMBL

> <Article DOI>
10.1016/j.bmc.2015.05.051

> <PMID>
26088338

> <Patent Number>
?

> <Authors>
Abdullah, I; Chee, CF; Lee, YK; Thunuguntla, SS; Satish Reddy, K; Nellore, K; Antony, T; Verma, J; Mun, KW; Othman, S; Subramanya, H; Rahman, NA

> <Link to Ligand in BindingDB>
http://www.bindingdb.org/bind/chemsearch/marvin/MolStructure.jsp?monomerid=50096149

> <Link to Ligand-Target Pair in BindingDB>
http://www.bindingdb.org/jsp/dbsearch/PrimarySearch_ki.jsp?energyterm=kJ/mole&tag=r21&monomerid=50096149&enzyme=Dihydroorotate+dehydrogenase&column=ki&startPg=0&Increment=50&submit=Search

> <PubChem CID>
122182321

> <PubChem SID>
318473802

$$$$

  Mrv2115 07222212352D          

 29 32  0  0  0  0            999 V2000
   -5.5337   -2.8414    0.0000 C   0  0  0  0  0  0  0  0  0  0  0  0
   -5.1212   -2.1269    0.0000 C   0  0  0  0  0  0  0  0  0  0  0  0
   -5.5337   -1.4124    0.0000 O   0  0  0  0  0  0  0  0  0  0  0  0
   -4.2962   -2.1269    0.0000 N   0  0  0  0  0  0  0  0  0  0  0  0
   -3.8837   -1.4124    0.0000 C   0  0  0  0  0  0  0  0  0  0  0  0
   -4.2962   -0.6979    0.0000 C   0  0  0  0  0  0  0  0  0  0  0  0
   -3.8837    0.0165    0.0000 C   0  0  0  0  0  0  0  0  0  0  0  0
   -3.0587    0.0165    0.0000 C   0  0  0  0  0  0  0  0  0  0  0  0
   -2.6462   -0.6979    0.0000 C   0  0  0  0  0  0  0  0  0  0  0  0
   -1.8212   -0.6979    0.0000 C   0  0  0  0  0  0  0  0  0  0  0  0
   -1.4087    0.0165    0.0000 C   0  0  0  0  0  0  0  0  0  0  0  0
   -0.5837    0.0165    0.0000 C   0  0  0  0  0  0  0  0  0  0  0  0
   -0.1712   -0.6979    0.0000 C   0  0  0  0  0  0  0  0  0  0  0  0
    0.6538   -0.6979    0.0000 C   0  0  0  0  0  0  0  0  0  0  0  0
    1.1387   -0.0305    0.0000 N   0  0  0  0  0  0  0  0  0  0  0  0
    1.9233   -0.2854    0.0000 C   0  0  0  0  0  0  0  0  0  0  0  0
    2.6378    0.1271    0.0000 C   0  0  0  0  0  0  0  0  0  0  0  0
    2.6378    0.9521    0.0000 C   0  0  0  0  0  0  0  0  0  0  0  0
    1.9233    1.3646    0.0000 O   0  0  0  0  0  0  0  0  0  0  0  0
    3.3523    1.3646    0.0000 O   0  0  0  0  0  0  0  0  0  0  0  0
    3.3523   -0.2854    0.0000 C   0  0  0  0  0  0  0  0  0  0  0  0
    3.3523   -1.1104    0.0000 C   0  0  0  0  0  0  0  0  0  0  0  0
    4.0668   -1.5229    0.0000 C   0  0  0  0  0  0  0  0  0  0  0  0
    2.6378   -1.5229    0.0000 C   0  0  0  0  0  0  0  0  0  0  0  0
    1.9233   -1.1104    0.0000 C   0  0  0  0  0  0  0  0  0  0  0  0
    1.1387   -1.3654    0.0000 N   0  0  0  0  0  0  0  0  0  0  0  0
   -0.5837   -1.4124    0.0000 C   0  0  0  0  0  0  0  0  0  0  0  0
   -1.4087   -1.4124    0.0000 C   0  0  0  0  0  0  0  0  0  0  0  0
   -3.0587   -1.4124    0.0000 C   0  0  0  0  0  0  0  0  0  0  0  0
  1  2  1  0  0  0  0
  2  3  2  0  0  0  0
  2  4  1  0  0  0  0
  4  5  1  0  0  0  0
  5  6  4  0  0  0  0
  6  7  4  0  0  0  0
  7  8  4  0  0  0  0
  8  9  4  0  0  0  0
  9 10  1  0  0  0  0
 10 11  4  0  0  0  0
 11 12  4  0  0  0  0
 12 13  4  0  0  0  0
 13 14  1  0  0  0  0
 14 15  4  0  0  0  0
 15 16  4  0  0  0  0
 16 17  4  0  0  0  0
 17 18  1  0  0  0  0
 18 19  2  0  0  0  0
 18 20  1  0  0  0  0
 17 21  4  0  0  0  0
 21 22  4  0  0  0  0
 22 23  1  0  0  0  0
 22 24  4  0  0  0  0
 24 25  4  0  0  0  0
 16 25  4  0  0  0  0
 25 26  4  0  0  0  0
 14 26  4  0  0  0  0
 13 27  4  0  0  0  0
 27 28  4  0  0  0  0
 10 28  4  0  0  0  0
  9 29  4  0  0  0  0
  5 29  4  0  0  0  0
M  STY  1   1 DAT
M  SAL   1  1  26
M  SDT   1 MRV_IMPLICIT_H                                        
M  SDD   1     0.5304   -0.4125    DR    ALL  0       0  
M  SED   1 IMPL_H1
M  END
> <IC50(uM)>
1.38

> <Outcome>
0.0

> <BindingDB ID>
50358204

> <BindingDB MonomerID>
50096196

> <BindingDB Ligand Name>
CHEMBL3593802

> <Curation/DataSource>
ChEMBL

> <Article DOI>
10.1016/j.bmc.2015.05.051

> <PMID>
26088338

> <Patent Number>
?

> <Authors>
Abdullah, I; Chee, CF; Lee, YK; Thunuguntla, SS; Satish Reddy, K; Nellore, K; Antony, T; Verma, J; Mun, KW; Othman, S; Subramanya, H; Rahman, NA

> <Link to Ligand in BindingDB>
http://www.bindingdb.org/bind/chemsearch/marvin/MolStructure.jsp?monomerid=50096196

> <Link to Ligand-Target Pair in BindingDB>
http://www.bindingdb.org/jsp/dbsearch/PrimarySearch_ki.jsp?energyterm=kJ/mole&tag=r21&monomerid=50096196&enzyme=Dihydroorotate+dehydrogenase&column=ki&startPg=0&Increment=50&submit=Search

> <PubChem CID>
122182177

> <PubChem SID>
103993763

$$$$

  Mrv2115 07222212352D          

 21 23  0  0  0  0            999 V2000
   -3.2965   10.5022    0.0000 C   0  0  0  0  0  0  0  0  0  0  0  0
   -2.6834    9.9501    0.0000 C   0  0  0  0  0  0  0  0  0  0  0  0
   -1.8988   10.2051    0.0000 C   0  0  0  0  0  0  0  0  0  0  0  0
   -1.2857    9.6530    0.0000 C   0  0  0  0  0  0  0  0  0  0  0  0
   -1.4572    8.8461    0.0000 C   0  0  0  0  0  0  0  0  0  0  0  0
   -0.8441    8.2940    0.0000 N   0  0  0  0  0  0  0  0  0  0  0  0
   -0.0595    8.5490    0.0000 C   0  0  0  0  0  0  0  0  0  0  0  0
    0.1954    9.3336    0.0000 S   0  0  0  0  0  0  0  0  0  0  0  0
    1.0204    9.3336    0.0000 C   0  0  0  0  0  0  0  0  0  0  0  0
    1.2754    8.5490    0.0000 C   0  0  0  0  0  0  0  0  0  0  0  0
    2.0600    8.2940    0.0000 O   0  0  0  0  0  0  0  0  0  0  0  0
    0.6079    8.0640    0.0000 C   0  0  0  0  0  0  0  0  0  0  0  0
    0.6079    7.2390    0.0000 C   0  0  0  0  0  0  0  0  0  0  0  0
   -0.1065    6.8265    0.0000 O   0  0  0  0  0  0  0  0  0  0  0  0
    1.3224    6.8265    0.0000 N   0  0  0  0  0  0  0  0  0  0  0  0
    1.3224    6.0015    0.0000 C   0  0  0  0  0  0  0  0  0  0  0  0
    1.7349    5.2871    0.0000 C   0  0  0  0  0  0  0  0  0  0  0  0
    0.9099    5.2871    0.0000 C   0  0  0  0  0  0  0  0  0  0  0  0
   -2.2419    8.5911    0.0000 C   0  0  0  0  0  0  0  0  0  0  0  0
   -2.8549    9.1432    0.0000 C   0  0  0  0  0  0  0  0  0  0  0  0
   -3.6396    8.8882    0.0000 C   0  0  0  0  0  0  0  0  0  0  0  0
  1  2  1  0  0  0  0
  2  3  4  0  0  0  0
  3  4  4  0  0  0  0
  4  5  4  0  0  0  0
  5  6  1  0  0  0  0
  6  7  1  0  0  0  0
  7  8  4  0  0  0  0
  8  9  4  0  0  0  0
  9 10  4  0  0  0  0
 10 11  1  0  0  0  0
 10 12  4  0  0  0  0
  7 12  4  0  0  0  0
 12 13  1  0  0  0  0
 13 14  2  0  0  0  0
 13 15  1  0  0  0  0
 15 16  1  0  0  0  0
 16 17  1  0  0  0  0
 17 18  1  0  0  0  0
 16 18  1  0  0  0  0
  5 19  4  0  0  0  0
 19 20  4  0  0  0  0
  2 20  4  0  0  0  0
 20 21  1  0  0  0  0
M  END
> <IC50(uM)>
4.109

> <Outcome>
0.0

> <BindingDB ID>
51079155

> <BindingDB MonomerID>
50441263

> <BindingDB Ligand Name>
CHEMBL2431486

> <Curation/DataSource>
ChEMBL

> <Article DOI>
10.1021/jm400938g

> <PMID>
24073986

> <Patent Number>
?

> <Authors>
Xu, M; Zhu, J; Diao, Y; Zhou, H; Ren, X; Sun, D; Huang, J; Han, D; Zhao, Z; Zhu, L; Xu, Y; Li, H

> <Link to Ligand in BindingDB>
http://www.bindingdb.org/bind/chemsearch/marvin/MolStructure.jsp?monomerid=50441263

> <Link to Ligand-Target Pair in BindingDB>
http://www.bindingdb.org/jsp/dbsearch/PrimarySearch_ki.jsp?energyterm=kJ/mole&tag=r21&monomerid=50441263&enzyme=Dihydroorotate+dehydrogenase&column=ki&startPg=0&Increment=50&submit=Search

> <PubChem CID>
91898824

> <PubChem SID>
175453580

$$$$

  Mrv2115 07222212352D          

 34 38  0  0  0  0            999 V2000
    7.8480   -6.2619    0.0000 C   0  0  0  0  0  0  0  0  0  0  0  0
    7.5931   -5.4773    0.0000 O   0  0  0  0  0  0  0  0  0  0  0  0
    6.7861   -5.3057    0.0000 C   0  0  0  0  0  0  0  0  0  0  0  0
    6.2341   -5.9188    0.0000 O   0  0  0  0  0  0  0  0  0  0  0  0
    6.5311   -4.5211    0.0000 C   0  0  0  0  0  0  0  0  0  0  0  0
    5.7242   -4.3496    0.0000 C   0  0  0  0  0  0  0  0  0  0  0  0
    5.1721   -4.9627    0.0000 C   0  0  0  0  0  0  0  0  0  0  0  0
    4.3652   -4.7911    0.0000 C   0  0  0  0  0  0  0  0  0  0  0  0
    4.1102   -4.0065    0.0000 C   0  0  0  0  0  0  0  0  0  0  0  0
    4.6623   -3.3934    0.0000 C   0  0  0  0  0  0  0  0  0  0  0  0
    4.4073   -2.6088    0.0000 C   0  0  0  0  0  0  0  0  0  0  0  0
    3.6004   -2.4373    0.0000 C   0  0  0  0  0  0  0  0  0  0  0  0
    3.0483   -3.0504    0.0000 F   0  0  0  0  0  0  0  0  0  0  0  0
    3.3454   -1.6527    0.0000 C   0  0  0  0  0  0  0  0  0  0  0  0
    3.8974   -1.0396    0.0000 C   0  0  0  0  0  0  0  0  0  0  0  0
    3.6425   -0.2549    0.0000 N   0  0  0  0  0  0  0  0  0  0  0  0
    4.1274    0.4125    0.0000 N   0  0  0  0  0  0  0  0  0  0  0  0
    3.6425    1.0799    0.0000 N   0  0  0  0  0  0  0  0  0  0  0  0
    2.8579    0.8250    0.0000 C   0  0  0  0  0  0  0  0  0  0  0  0
    2.8579    0.0000    0.0000 C   0  0  0  0  0  0  0  0  0  0  0  0
    2.1434   -0.4125    0.0000 C   0  0  0  0  0  0  0  0  0  0  0  0
    2.1434   -1.2375    0.0000 O   0  0  0  0  0  0  0  0  0  0  0  0
    1.4289   -0.0000    0.0000 C   0  0  0  0  0  0  0  0  0  0  0  0
    0.7145   -0.4125    0.0000 C   0  0  0  0  0  0  0  0  0  0  0  0
   -0.0000    0.0000    0.0000 C   0  0  0  0  0  0  0  0  0  0  0  0
    0.0000    0.8250    0.0000 C   0  0  0  0  0  0  0  0  0  0  0  0
    0.7145    1.2375    0.0000 C   0  0  0  0  0  0  0  0  0  0  0  0
    1.4289    0.8250    0.0000 C   0  0  0  0  0  0  0  0  0  0  0  0
    2.1434    1.2375    0.0000 C   0  0  0  0  0  0  0  0  0  0  0  0
    2.1434    2.0625    0.0000 O   0  0  0  0  0  0  0  0  0  0  0  0
    4.7044   -1.2111    0.0000 C   0  0  0  0  0  0  0  0  0  0  0  0
    4.9594   -1.9957    0.0000 C   0  0  0  0  0  0  0  0  0  0  0  0
    5.7663   -2.1672    0.0000 F   0  0  0  0  0  0  0  0  0  0  0  0
    5.4692   -3.5650    0.0000 C   0  0  0  0  0  0  0  0  0  0  0  0
  1  2  1  0  0  0  0
  2  3  1  0  0  0  0
  3  4  2  0  0  0  0
  3  5  1  0  0  0  0
  5  6  1  0  0  0  0
  6  7  4  0  0  0  0
  7  8  4  0  0  0  0
  8  9  4  0  0  0  0
  9 10  4  0  0  0  0
 10 11  1  0  0  0  0
 11 12  4  0  0  0  0
 12 13  1  0  0  0  0
 12 14  4  0  0  0  0
 14 15  4  0  0  0  0
 15 16  1  0  0  0  0
 16 17  4  0  0  0  0
 17 18  4  0  0  0  0
 18 19  4  0  0  0  0
 19 20  4  0  0  0  0
 16 20  4  0  0  0  0
 20 21  1  0  0  0  0
 21 22  2  0  0  0  0
 21 23  1  0  0  0  0
 23 24  4  0  0  0  0
 24 25  4  0  0  0  0
 25 26  4  0  0  0  0
 26 27  4  0  0  0  0
 27 28  4  0  0  0  0
 23 28  4  0  0  0  0
 28 29  1  0  0  0  0
 19 29  1  0  0  0  0
 29 30  2  0  0  0  0
 15 31  4  0  0  0  0
 31 32  4  0  0  0  0
 11 32  4  0  0  0  0
 32 33  1  0  0  0  0
 10 34  4  0  0  0  0
  6 34  4  0  0  0  0
M  END
> <IC50(uM)>
0.0046

> <Outcome>
1.0

> <BindingDB ID>
51338204

> <BindingDB MonomerID>
50541678

> <BindingDB Ligand Name>
CHEMBL4633498

> <Curation/DataSource>
ChEMBL

> <Article DOI>
10.1021/acs.jmedchem.0c00512

> <PMID>
32496056

> <Patent Number>
?

> <Authors>
Zuo, Z; Liu, X; Qian, X; Zeng, T; Sang, N; Liu, H; Zhou, Y; Tao, L; Zhou, X; Su, N; Yu, Y; Chen, Q; Luo, Y; Zhao, Y

> <Link to Ligand in BindingDB>
http://www.bindingdb.org/bind/chemsearch/marvin/MolStructure.jsp?monomerid=50541678

> <Link to Ligand-Target Pair in BindingDB>
http://www.bindingdb.org/jsp/dbsearch/PrimarySearch_ki.jsp?energyterm=kJ/mole&tag=r21&monomerid=50541678&enzyme=Dihydroorotate+dehydrogenase&column=ki&startPg=0&Increment=50&submit=Search

> <PubChem CID>
156010517

> <PubChem SID>
442143241

$$$$

  Mrv2115 07222212352D          

 25 28  0  0  0  0            999 V2000
   -3.3722    2.9832    0.0000 C   0  0  0  0  0  0  0  0  0  0  0  0
   -3.0366    2.2295    0.0000 N   0  0  0  0  0  0  0  0  0  0  0  0
   -2.2296    2.0580    0.0000 C   0  0  0  0  0  0  0  0  0  0  0  0
   -2.1434    1.2375    0.0000 C   0  0  0  0  0  0  0  0  0  0  0  0
   -1.4289    0.8250    0.0000 C   0  0  0  0  0  0  0  0  0  0  0  0
   -0.7145    1.2375    0.0000 C   0  0  0  0  0  0  0  0  0  0  0  0
    0.0000    0.8250    0.0000 C   0  0  0  0  0  0  0  0  0  0  0  0
    0.0000   -0.0000    0.0000 C   0  0  0  0  0  0  0  0  0  0  0  0
    0.7145   -0.4125    0.0000 C   0  0  0  0  0  0  0  0  0  0  0  0
    1.4289    0.0000    0.0000 N   0  0  0  0  0  0  0  0  0  0  0  0
    2.1434   -0.4125    0.0000 C   0  0  0  0  0  0  0  0  0  0  0  0
    2.8579    0.0000    0.0000 C   0  0  0  0  0  0  0  0  0  0  0  0
    3.5724   -0.4125    0.0000 C   0  0  0  0  0  0  0  0  0  0  0  0
    3.5724   -1.2375    0.0000 N   0  0  0  0  0  0  0  0  0  0  0  0
    2.8579   -1.6500    0.0000 C   0  0  0  0  0  0  0  0  0  0  0  0
    2.1434   -1.2375    0.0000 C   0  0  0  0  0  0  0  0  0  0  0  0
    1.4289   -1.6500    0.0000 C   0  0  0  0  0  0  0  0  0  0  0  0
    1.4289   -2.4750    0.0000 O   0  0  0  0  0  0  0  0  0  0  0  0
    0.7145   -1.2375    0.0000 C   0  0  0  0  0  0  0  0  0  0  0  0
    0.0000   -1.6500    0.0000 C   0  0  0  0  0  0  0  0  0  0  0  0
   -0.7145   -2.0625    0.0000 N   0  0  0  0  0  0  0  0  0  0  0  0
   -0.7145   -0.4125    0.0000 C   0  0  0  0  0  0  0  0  0  0  0  0
   -1.4289   -0.0000    0.0000 C   0  0  0  0  0  0  0  0  0  0  0  0
   -2.8971    0.9019    0.0000 C   0  0  0  0  0  0  0  0  0  0  0  0
   -3.4491    1.5150    0.0000 N   0  0  0  0  0  0  0  0  0  0  0  0
  1  2  1  0  0  0  0
  2  3  4  0  0  0  0
  3  4  4  0  0  0  0
  4  5  1  0  0  0  0
  5  6  4  0  0  0  0
  6  7  4  0  0  0  0
  7  8  4  0  0  0  0
  8  9  1  0  0  0  0
  9 10  4  0  0  0  0
 10 11  4  0  0  0  0
 11 12  4  0  0  0  0
 12 13  4  0  0  0  0
 13 14  4  0  0  0  0
 14 15  4  0  0  0  0
 15 16  4  0  0  0  0
 11 16  4  0  0  0  0
 16 17  4  0  0  0  0
 17 18  1  0  0  0  0
 17 19  4  0  0  0  0
  9 19  4  0  0  0  0
 19 20  1  0  0  0  0
 20 21  3  0  0  0  0
  8 22  4  0  0  0  0
 22 23  4  0  0  0  0
  5 23  4  0  0  0  0
  4 24  4  0  0  0  0
 24 25  4  0  0  0  0
  2 25  4  0  0  0  0
M  END
> <IC50(uM)>
9.9

> <Outcome>
0.0

> <BindingDB ID>
50720835

> <BindingDB MonomerID>
50365499

> <BindingDB Ligand Name>
CHEMBL1957461

> <Curation/DataSource>
ChEMBL

> <Article DOI>
10.1016/j.bmcl.2012.01.046

> <PMID>
22321214

> <Patent Number>
?

> <Authors>
Bauer, U; Giordanetto, F; Bauer, M; O'Mahony, G; Johansson, KE; Knecht, W; Hartleib-Geschwindner, J; Carlsson, ET; Enroth, C

> <Link to Ligand in BindingDB>
http://www.bindingdb.org/bind/chemsearch/marvin/MolStructure.jsp?monomerid=50365499

> <Link to Ligand-Target Pair in BindingDB>
http://www.bindingdb.org/jsp/dbsearch/PrimarySearch_ki.jsp?energyterm=kJ/mole&tag=r21&monomerid=50365499&enzyme=Dihydroorotate+dehydrogenase&column=ki&startPg=0&Increment=50&submit=Search

> <PubChem CID>
57398380

> <PubChem SID>
136969561

$$$$

  Mrv2115 07222212352D          

 35 38  0  0  0  0            999 V2000
   -0.7145   -2.8875    0.0000 C   0  0  0  0  0  0  0  0  0  0  0  0
    0.0000   -2.4750    0.0000 C   0  0  0  0  0  0  0  0  0  0  0  0
    0.0000   -1.6500    0.0000 O   0  0  0  0  0  0  0  0  0  0  0  0
    0.7145   -1.2375    0.0000 C   0  0  0  0  0  0  0  0  0  0  0  0
    0.7145   -0.4125    0.0000 C   0  0  0  0  0  0  0  0  0  0  0  0
    1.4289    0.0000    0.0000 C   0  0  0  0  0  0  0  0  0  0  0  0
    2.1434   -0.4125    0.0000 C   0  0  0  0  0  0  0  0  0  0  0  0
    2.8579    0.0000    0.0000 N   0  0  0  0  0  0  0  0  0  0  0  0
    3.5724   -0.4125    0.0000 C   0  0  0  0  0  0  0  0  0  0  0  0
    4.2868   -0.0000    0.0000 C   0  0  0  0  0  0  0  0  0  0  0  0
    5.0013   -0.4125    0.0000 O   0  0  0  0  0  0  0  0  0  0  0  0
    4.2868    0.8250    0.0000 N   0  0  0  0  0  0  0  0  0  0  0  0
    5.0013    1.2375    0.0000 C   0  0  0  0  0  0  0  0  0  0  0  0
    5.0013    2.0625    0.0000 C   0  0  0  0  0  0  0  0  0  0  0  0
    4.2868    2.4750    0.0000 F   0  0  0  0  0  0  0  0  0  0  0  0
    5.7158    2.4750    0.0000 C   0  0  0  0  0  0  0  0  0  0  0  0
    6.4302    2.0625    0.0000 C   0  0  0  0  0  0  0  0  0  0  0  0
    7.1447    2.4750    0.0000 C   0  0  0  0  0  0  0  0  0  0  0  0
    7.1447    3.3000    0.0000 C   0  0  0  0  0  0  0  0  0  0  0  0
    7.8592    3.7125    0.0000 C   0  0  0  0  0  0  0  0  0  0  0  0
    8.5737    3.3000    0.0000 C   0  0  0  0  0  0  0  0  0  0  0  0
    8.5737    2.4750    0.0000 C   0  0  0  0  0  0  0  0  0  0  0  0
    9.2881    2.0625    0.0000 F   0  0  0  0  0  0  0  0  0  0  0  0
    7.8592    2.0625    0.0000 C   0  0  0  0  0  0  0  0  0  0  0  0
    6.4302    1.2375    0.0000 C   0  0  0  0  0  0  0  0  0  0  0  0
    5.7158    0.8250    0.0000 C   0  0  0  0  0  0  0  0  0  0  0  0
    5.7158   -0.0000    0.0000 F   0  0  0  0  0  0  0  0  0  0  0  0
    3.5724   -1.2375    0.0000 C   0  0  0  0  0  0  0  0  0  0  0  0
    4.2868   -1.6500    0.0000 C   0  0  0  0  0  0  0  0  0  0  0  0
    2.8579   -1.6500    0.0000 C   0  0  0  0  0  0  0  0  0  0  0  0
    2.8579   -2.4750    0.0000 C   0  0  0  0  0  0  0  0  0  0  0  0
    2.1434   -2.8875    0.0000 O   0  0  0  0  0  0  0  0  0  0  0  0
    3.5724   -2.8875    0.0000 O   0  0  0  0  0  0  0  0  0  0  0  0
    2.1434   -1.2375    0.0000 C   0  0  0  0  0  0  0  0  0  0  0  0
    1.4289   -1.6500    0.0000 C   0  0  0  0  0  0  0  0  0  0  0  0
  1  2  1  0  0  0  0
  2  3  1  0  0  0  0
  3  4  1  0  0  0  0
  4  5  4  0  0  0  0
  5  6  4  0  0  0  0
  6  7  4  0  0  0  0
  7  8  4  0  0  0  0
  8  9  4  0  0  0  0
  9 10  1  0  0  0  0
 10 11  2  0  0  0  0
 10 12  1  0  0  0  0
 12 13  1  0  0  0  0
 13 14  4  0  0  0  0
 14 15  1  0  0  0  0
 14 16  4  0  0  0  0
 16 17  4  0  0  0  0
 17 18  1  0  0  0  0
 18 19  4  0  0  0  0
 19 20  4  0  0  0  0
 20 21  4  0  0  0  0
 21 22  4  0  0  0  0
 22 23  1  0  0  0  0
 22 24  4  0  0  0  0
 18 24  4  0  0  0  0
 17 25  4  0  0  0  0
 25 26  4  0  0  0  0
 13 26  4  0  0  0  0
 26 27  1  0  0  0  0
  9 28  4  0  0  0  0
 28 29  1  0  0  0  0
 28 30  4  0  0  0  0
 30 31  1  0  0  0  0
 31 32  2  0  0  0  0
 31 33  1  0  0  0  0
 30 34  4  0  0  0  0
  7 34  4  0  0  0  0
 34 35  4  0  0  0  0
  4 35  4  0  0  0  0
M  END
> <IC50(uM)>
2.83

> <Outcome>
0.0

> <BindingDB ID>
50107551

> <BindingDB MonomerID>
50020695

> <BindingDB Ligand Name>
CHEMBL3290843

> <Curation/DataSource>
ChEMBL

> <Article DOI>
10.1016/j.ejmech.2014.05.064

> <PMID>
24929289

> <Patent Number>
?

> <Authors>
Vyas, VK; Variya, B; Ghate, MD

> <Link to Ligand in BindingDB>
http://www.bindingdb.org/bind/chemsearch/marvin/MolStructure.jsp?monomerid=50020695

> <Link to Ligand-Target Pair in BindingDB>
http://www.bindingdb.org/jsp/dbsearch/PrimarySearch_ki.jsp?energyterm=kJ/mole&tag=r21&monomerid=50020695&enzyme=Dihydroorotate+dehydrogenase&column=ki&startPg=0&Increment=50&submit=Search

> <PubChem CID>
90644870

> <PubChem SID>
103931454

$$$$

  Mrv2115 07222212352D          

 25 27  0  0  0  0            999 V2000
    7.8592    1.2375    0.0000 O   0  0  0  0  0  0  0  0  0  0  0  0
    7.8592    0.4125    0.0000 C   0  0  0  0  0  0  0  0  0  0  0  0
    7.1447    0.0000    0.0000 C   0  0  0  0  0  0  0  0  0  0  0  0
    6.4302    0.4125    0.0000 C   0  0  0  0  0  0  0  0  0  0  0  0
    5.7158    0.0000    0.0000 N   0  0  0  0  0  0  0  0  0  0  0  0
    5.0013    0.4125    0.0000 C   0  0  0  0  0  0  0  0  0  0  0  0
    5.0013    1.2375    0.0000 O   0  0  0  0  0  0  0  0  0  0  0  0
    4.2868    0.0000    0.0000 C   0  0  0  0  0  0  0  0  0  0  0  0
    4.2868   -0.8250    0.0000 C   0  0  0  0  0  0  0  0  0  0  0  0
    3.5724   -1.2375    0.0000 C   0  0  0  0  0  0  0  0  0  0  0  0
    2.8579   -0.8250    0.0000 C   0  0  0  0  0  0  0  0  0  0  0  0
    2.1434   -1.2375    0.0000 Cl  0  0  0  0  0  0  0  0  0  0  0  0
    2.8579    0.0000    0.0000 C   0  0  0  0  0  0  0  0  0  0  0  0
    3.5724    0.4125    0.0000 C   0  0  0  0  0  0  0  0  0  0  0  0
    8.5737    0.0000    0.0000 N   0  0  0  0  0  0  0  0  0  0  0  0
    9.2881    0.4125    0.0000 C   0  0  0  0  0  0  0  0  0  0  0  0
    9.2881    1.2375    0.0000 C   0  0  0  0  0  0  0  0  0  0  0  0
   10.0026    1.6500    0.0000 C   0  0  0  0  0  0  0  0  0  0  0  0
   10.7171    1.2375    0.0000 C   0  0  0  0  0  0  0  0  0  0  0  0
   10.7171    0.4125    0.0000 C   0  0  0  0  0  0  0  0  0  0  0  0
   11.4315    0.0000    0.0000 C   0  0  0  0  0  0  0  0  0  0  0  0
   11.4315   -0.8250    0.0000 C   0  0  0  0  0  0  0  0  0  0  0  0
   10.7171   -1.2375    0.0000 C   0  0  0  0  0  0  0  0  0  0  0  0
   10.0026   -0.8250    0.0000 C   0  0  0  0  0  0  0  0  0  0  0  0
   10.0026    0.0000    0.0000 C   0  0  0  0  0  0  0  0  0  0  0  0
  1  2  2  0  0  0  0
  2  3  1  0  0  0  0
  3  4  1  0  0  0  0
  4  5  1  0  0  0  0
  5  6  1  0  0  0  0
  6  7  2  0  0  0  0
  6  8  1  0  0  0  0
  8  9  4  0  0  0  0
  9 10  4  0  0  0  0
 10 11  4  0  0  0  0
 11 12  1  0  0  0  0
 11 13  4  0  0  0  0
 13 14  4  0  0  0  0
  8 14  4  0  0  0  0
  2 15  1  0  0  0  0
 15 16  1  0  0  0  0
 16 17  1  0  0  0  0
 17 18  1  0  0  0  0
 18 19  1  0  0  0  0
 19 20  1  0  0  0  0
 20 21  4  0  0  0  0
 21 22  4  0  0  0  0
 22 23  4  0  0  0  0
 23 24  4  0  0  0  0
 24 25  4  0  0  0  0
 20 25  4  0  0  0  0
 16 25  1  0  0  0  0
M  END
> <IC50(uM)>
1.3

> <Outcome>
0.0

> <BindingDB ID>
50527776

> <BindingDB MonomerID>
50201620

> <BindingDB Ligand Name>
CHEMBL3186954

> <Curation/DataSource>
ChEMBL

> <Article DOI>
10.1021/acsmedchemlett.6b00316

> <PMID>
27994748

> <Patent Number>
?

> <Authors>
Lewis, TA; Sykes, DB; Law, JM; Mu??oz, B; Rustiguel, JK; Nonato, MC; Scadden, DT; Schreiber, SL

> <Link to Ligand in BindingDB>
http://www.bindingdb.org/bind/chemsearch/marvin/MolStructure.jsp?monomerid=50201620

> <Link to Ligand-Target Pair in BindingDB>
http://www.bindingdb.org/jsp/dbsearch/PrimarySearch_ki.jsp?energyterm=kJ/mole&tag=r21&monomerid=50201620&enzyme=Dihydroorotate+dehydrogenase&column=ki&startPg=0&Increment=50&submit=Search

> <PubChem CID>
7688340

> <PubChem SID>
375979408

$$$$

  Mrv2115 07222212352D          

 37 40  0  0  0  0            999 V2000
   -5.2708    1.4423    0.0000 C   0  0  0  0  0  0  0  0  0  0  0  0
   -5.6833    0.7279    0.0000 C   0  0  0  0  0  0  0  0  0  0  0  0
   -6.5083    0.7279    0.0000 C   0  0  0  0  0  0  0  0  0  0  0  0
   -6.9208    0.0134    0.0000 C   0  0  0  0  0  0  0  0  0  0  0  0
   -7.7458    0.0134    0.0000 F   0  0  0  0  0  0  0  0  0  0  0  0
   -6.5083   -0.7011    0.0000 C   0  0  0  0  0  0  0  0  0  0  0  0
   -5.6833   -0.7011    0.0000 C   0  0  0  0  0  0  0  0  0  0  0  0
   -5.2708   -1.4156    0.0000 Cl  0  0  0  0  0  0  0  0  0  0  0  0
   -5.2708    0.0134    0.0000 C   0  0  0  0  0  0  0  0  0  0  0  0
   -4.4458    0.0134    0.0000 N   0  0  0  0  0  0  0  0  0  0  0  0
   -4.0333   -0.7011    0.0000 C   0  0  0  0  0  0  0  0  0  0  0  0
   -4.4458   -1.4156    0.0000 O   0  0  0  0  0  0  0  0  0  0  0  0
   -3.2083   -0.7011    0.0000 C   0  0  0  0  0  0  0  0  0  0  0  0
   -2.7958    0.0134    0.0000 C   0  0  0  0  0  0  0  0  0  0  0  0
   -1.9708    0.0134    0.0000 C   0  0  0  0  0  0  0  0  0  0  0  0
   -1.5583    0.7279    0.0000 F   0  0  0  0  0  0  0  0  0  0  0  0
   -1.5583   -0.7011    0.0000 C   0  0  0  0  0  0  0  0  0  0  0  0
   -0.7333   -0.7011    0.0000 N   0  0  0  0  0  0  0  0  0  0  0  0
   -0.2483   -1.3685    0.0000 N   0  0  0  0  0  0  0  0  0  0  0  0
    0.5363   -1.1136    0.0000 C   0  0  0  0  0  0  0  0  0  0  0  0
    0.5363   -0.2886    0.0000 N   0  0  0  0  0  0  0  0  0  0  0  0
   -0.2483   -0.0336    0.0000 C   0  0  0  0  0  0  0  0  0  0  0  0
   -0.5033    0.7510    0.0000 O   0  0  0  0  0  0  0  0  0  0  0  0
    1.1813    0.2258    0.0000 C   0  0  0  0  0  0  0  0  0  0  0  0
    1.9856    0.0422    0.0000 C   0  0  0  0  0  0  0  0  0  0  0  0
    2.3436   -0.7011    0.0000 C   0  0  0  0  0  0  0  0  0  0  0  0
    1.9856   -1.4444    0.0000 O   0  0  0  0  0  0  0  0  0  0  0  0
    1.1813   -1.6280    0.0000 C   0  0  0  0  0  0  0  0  0  0  0  0
   -1.9708   -1.4156    0.0000 C   0  0  0  0  0  0  0  0  0  0  0  0
   -2.7958   -1.4156    0.0000 C   0  0  0  0  0  0  0  0  0  0  0  0
   -3.2083   -2.1300    0.0000 O   0  0  0  0  0  0  0  0  0  0  0  0
   -2.7958   -2.8445    0.0000 C   0  0  0  0  0  0  0  0  0  0  0  0
   -1.9708   -2.8445    0.0000 C   0  0  0  0  0  0  0  0  0  0  0  0
   -3.2083   -3.5590    0.0000 C   0  0  0  0  0  0  0  0  0  0  0  0
   -3.9227   -3.1465    0.0000 F   0  0  0  0  0  0  0  0  0  0  0  0
   -2.4938   -3.9715    0.0000 F   0  0  0  0  0  0  0  0  0  0  0  0
   -3.6208   -4.2734    0.0000 F   0  0  0  0  0  0  0  0  0  0  0  0
  1  2  1  0  0  0  0
  2  3  4  0  0  0  0
  3  4  4  0  0  0  0
  4  5  1  0  0  0  0
  4  6  4  0  0  0  0
  6  7  4  0  0  0  0
  7  8  1  0  0  0  0
  7  9  4  0  0  0  0
  2  9  4  0  0  0  0
  9 10  1  0  0  0  0
 10 11  1  0  0  0  0
 11 12  2  0  0  0  0
 11 13  1  0  0  0  0
 13 14  4  0  0  0  0
 14 15  4  0  0  0  0
 15 16  1  0  0  0  0
 15 17  4  0  0  0  0
 17 18  1  0  0  0  0
 18 19  4  0  0  0  0
 19 20  4  0  0  0  0
 20 21  4  0  0  0  0
 21 22  4  0  0  0  0
 18 22  4  0  0  0  0
 22 23  2  0  0  0  0
 21 24  1  0  0  0  0
 24 25  1  0  0  0  0
 25 26  1  0  0  0  0
 26 27  1  0  0  0  0
 27 28  1  0  0  0  0
 20 28  1  0  0  0  0
 17 29  4  0  0  0  0
 29 30  4  0  0  0  0
 13 30  4  0  0  0  0
 30 31  1  0  0  0  0
 31 32  1  0  0  0  0
 32 33  1  0  0  0  0
 32 34  1  0  0  0  0
 34 35  1  0  0  0  0
 34 36  1  0  0  0  0
 34 37  1  0  0  0  0
M  END
> <IC50(uM)>
0.0029

> <Outcome>
1.0

> <BindingDB ID>
1020635

> <BindingDB MonomerID>
490564

> <BindingDB Ligand Name>
N-(2-chloro-4-fluoro-6-methylphenyl)-5-fluoro-4-(3-oxo-6,7-dihydro-3H,5H-[1,2,4]triazolo[3,4-c][1,4]oxazepin-2(9H)-yl)-2-{[(2S)-1,1,1-trifluoropropan-2-yl]oxy}benzamide::US10968216, Example 232

> <Curation/DataSource>
US Patent

> <Article DOI>
?

> <PMID>
?

> <Patent Number>
US10968216

> <Authors>
Gradl, SN; Nguyen, D; Eis, K; Gunther, J; Stellfeld, T; Janzer, A; Christian, S; Mueller, T; Sheikh, SE; Zhou, HJ; Zhao, C; Sykes, DB; Ferrara, SJ; Liu, K; Herbert, SA; Merz, C; Niehues, M; Nising, CF; Schafer, M; Zimmermann, K; Knablein, J; Thede, K; Faupel, T

> <Link to Ligand in BindingDB>
http://www.bindingdb.org/bind/chemsearch/marvin/MolStructure.jsp?monomerid=490564

> <Link to Ligand-Target Pair in BindingDB>
http://www.bindingdb.org/jsp/dbsearch/PrimarySearch_ki.jsp?energyterm=kJ/mole&tag=r21&monomerid=490564&enzyme=Dihydroorotate+dehydrogenase&column=ki&startPg=0&Increment=50&submit=Search

> <PubChem CID>
134474376

> <PubChem SID>
447117290

$$$$

  Mrv2115 07222212352D          

 27 29  0  0  0  0            999 V2000
    1.4289   -0.0000    0.0000 C   0  0  0  0  0  0  0  0  0  0  0  0
    0.7145   -0.4125    0.0000 N   0  0  0  0  0  0  0  0  0  0  0  0
    0.0000    0.0000    0.0000 N   0  0  0  0  0  0  0  0  0  0  0  0
   -0.7145   -0.4125    0.0000 C   0  0  0  0  0  0  0  0  0  0  0  0
   -1.4289    0.0000    0.0000 C   0  0  0  0  0  0  0  0  0  0  0  0
   -2.1434   -0.4125    0.0000 C   0  0  0  0  0  0  0  0  0  0  0  0
   -2.8579    0.0000    0.0000 C   0  0  0  0  0  0  0  0  0  0  0  0
   -3.5724   -0.4125    0.0000 N   0  0  0  0  0  0  0  0  0  0  0  0
   -2.8579    0.8250    0.0000 C   0  0  0  0  0  0  0  0  0  0  0  0
   -3.5724    1.2375    0.0000 F   0  0  0  0  0  0  0  0  0  0  0  0
   -2.1434    1.2375    0.0000 C   0  0  0  0  0  0  0  0  0  0  0  0
   -1.4289    0.8250    0.0000 C   0  0  0  0  0  0  0  0  0  0  0  0
   -0.7145    1.2375    0.0000 C   0  0  0  0  0  0  0  0  0  0  0  0
    0.0000    0.8250    0.0000 O   0  0  0  0  0  0  0  0  0  0  0  0
   -0.7145    2.0625    0.0000 O   0  0  0  0  0  0  0  0  0  0  0  0
    0.7145   -1.2375    0.0000 C   0  0  0  0  0  0  0  0  0  0  0  0
    1.3819   -1.7224    0.0000 N   0  0  0  0  0  0  0  0  0  0  0  0
    1.1270   -2.5070    0.0000 C   0  0  0  0  0  0  0  0  0  0  0  0
    1.6119   -3.1745    0.0000 C   0  0  0  0  0  0  0  0  0  0  0  0
    2.4324   -3.0882    0.0000 C   0  0  0  0  0  0  0  0  0  0  0  0
    2.9173   -3.7557    0.0000 C   0  0  0  0  0  0  0  0  0  0  0  0
    2.5817   -4.5094    0.0000 C   0  0  0  0  0  0  0  0  0  0  0  0
    1.7613   -4.5956    0.0000 C   0  0  0  0  0  0  0  0  0  0  0  0
    1.2763   -3.9282    0.0000 C   0  0  0  0  0  0  0  0  0  0  0  0
    0.4559   -4.0144    0.0000 Cl  0  0  0  0  0  0  0  0  0  0  0  0
    0.3020   -2.5070    0.0000 C   0  0  0  0  0  0  0  0  0  0  0  0
    0.0470   -1.7224    0.0000 S   0  0  0  0  0  0  0  0  0  0  0  0
  1  2  1  0  0  0  0
  2  3  1  0  0  0  0
  3  4  2  0  0  0  0
  4  5  1  0  0  0  0
  5  6  4  0  0  0  0
  6  7  4  0  0  0  0
  7  8  1  0  0  0  0
  7  9  4  0  0  0  0
  9 10  1  0  0  0  0
  9 11  4  0  0  0  0
 11 12  4  0  0  0  0
  5 12  4  0  0  0  0
 12 13  1  0  0  0  0
 13 14  2  0  0  0  0
 13 15  1  0  0  0  0
  2 16  1  0  0  0  0
 16 17  4  0  0  0  0
 17 18  4  0  0  0  0
 18 19  1  0  0  0  0
 19 20  4  0  0  0  0
 20 21  4  0  0  0  0
 21 22  4  0  0  0  0
 22 23  4  0  0  0  0
 23 24  4  0  0  0  0
 19 24  4  0  0  0  0
 24 25  1  0  0  0  0
 18 26  4  0  0  0  0
 26 27  4  0  0  0  0
 16 27  4  0  0  0  0
M  END
> <IC50(uM)>
0.0316

> <Outcome>
1.0

> <BindingDB ID>
1001132

> <BindingDB MonomerID>
482818

> <BindingDB Ligand Name>
US10919869, No.  25

> <Curation/DataSource>
US Patent

> <Article DOI>
?

> <PMID>
?

> <Patent Number>
US10919869

> <Authors>
Li, H; Xu, Y; Wang, R; Zhao, Z; Song, W; Xu, L

> <Link to Ligand in BindingDB>
http://www.bindingdb.org/bind/chemsearch/marvin/MolStructure.jsp?monomerid=482818

> <Link to Ligand-Target Pair in BindingDB>
http://www.bindingdb.org/jsp/dbsearch/PrimarySearch_ki.jsp?energyterm=kJ/mole&tag=r21&monomerid=482818&enzyme=Dihydroorotate+dehydrogenase&column=ki&startPg=0&Increment=50&submit=Search

> <PubChem CID>
132157994

> <PubChem SID>
443551959

$$$$

  Mrv2115 07222212352D          

 31 34  0  0  0  0            999 V2000
    0.0000   -1.6500    0.0000 C   0  0  0  0  0  0  0  0  0  0  0  0
    0.7145   -1.2375    0.0000 C   0  0  0  0  0  0  0  0  0  0  0  0
    0.7145   -0.4125    0.0000 C   0  0  0  0  0  0  0  0  0  0  0  0
    0.0000    0.0000    0.0000 C   0  0  0  0  0  0  0  0  0  0  0  0
   -0.7145   -0.4125    0.0000 C   0  0  0  0  0  0  0  0  0  0  0  0
   -1.4289    0.0000    0.0000 C   0  0  0  0  0  0  0  0  0  0  0  0
   -1.4289    0.8250    0.0000 C   0  0  0  0  0  0  0  0  0  0  0  0
   -2.1434    1.2375    0.0000 C   0  0  0  0  0  0  0  0  0  0  0  0
   -2.8579    0.8250    0.0000 C   0  0  0  0  0  0  0  0  0  0  0  0
   -3.5724    1.2375    0.0000 C   0  0  0  0  0  0  0  0  0  0  0  0
   -3.5724    2.0625    0.0000 C   0  0  0  0  0  0  0  0  0  0  0  0
   -2.8579    2.4750    0.0000 C   0  0  0  0  0  0  0  0  0  0  0  0
   -2.1434    2.0625    0.0000 C   0  0  0  0  0  0  0  0  0  0  0  0
   -1.4289    2.4750    0.0000 F   0  0  0  0  0  0  0  0  0  0  0  0
   -0.7145    1.2375    0.0000 C   0  0  0  0  0  0  0  0  0  0  0  0
    0.0000    0.8250    0.0000 C   0  0  0  0  0  0  0  0  0  0  0  0
    1.4289    0.0000    0.0000 N   0  0  0  0  0  0  0  0  0  0  0  0
    2.1434   -0.4125    0.0000 C   0  0  0  0  0  0  0  0  0  0  0  0
    2.8579    0.0000    0.0000 C   0  0  0  0  0  0  0  0  0  0  0  0
    3.5724   -0.4125    0.0000 C   0  0  0  0  0  0  0  0  0  0  0  0
    3.5724   -1.2375    0.0000 C   0  0  0  0  0  0  0  0  0  0  0  0
    4.2868   -1.6500    0.0000 F   0  0  0  0  0  0  0  0  0  0  0  0
    2.8579   -1.6500    0.0000 C   0  0  0  0  0  0  0  0  0  0  0  0
    2.1434   -1.2375    0.0000 C   0  0  0  0  0  0  0  0  0  0  0  0
    1.4289   -1.6500    0.0000 C   0  0  0  0  0  0  0  0  0  0  0  0
    1.4289   -2.4750    0.0000 C   0  0  0  0  0  0  0  0  0  0  0  0
    2.1434   -2.8875    0.0000 O   0  0  0  0  0  0  0  0  0  0  0  0
    0.7145   -2.8875    0.0000 C   0  0  0  0  0  0  0  0  0  0  0  0
    0.3020   -2.1730    0.0000 F   0  0  0  0  0  0  0  0  0  0  0  0
    1.1270   -3.6020    0.0000 F   0  0  0  0  0  0  0  0  0  0  0  0
    0.0000   -3.3000    0.0000 F   0  0  0  0  0  0  0  0  0  0  0  0
  1  2  1  0  0  0  0
  2  3  4  0  0  0  0
  3  4  1  0  0  0  0
  4  5  4  0  0  0  0
  5  6  4  0  0  0  0
  6  7  4  0  0  0  0
  7  8  1  0  0  0  0
  8  9  4  0  0  0  0
  9 10  4  0  0  0  0
 10 11  4  0  0  0  0
 11 12  4  0  0  0  0
 12 13  4  0  0  0  0
  8 13  4  0  0  0  0
 13 14  1  0  0  0  0
  7 15  4  0  0  0  0
 15 16  4  0  0  0  0
  4 16  4  0  0  0  0
  3 17  4  0  0  0  0
 17 18  4  0  0  0  0
 18 19  4  0  0  0  0
 19 20  4  0  0  0  0
 20 21  4  0  0  0  0
 21 22  1  0  0  0  0
 21 23  4  0  0  0  0
 23 24  4  0  0  0  0
 18 24  4  0  0  0  0
 24 25  4  0  0  0  0
  2 25  4  0  0  0  0
 25 26  1  0  0  0  0
 26 27  2  0  0  0  0
 26 28  1  0  0  0  0
 28 29  1  0  0  0  0
 28 30  1  0  0  0  0
 28 31  1  0  0  0  0
M  END
> <IC50(uM)>
0.074

> <Outcome>
1.0

> <BindingDB ID>
51370190

> <BindingDB MonomerID>
50554018

> <BindingDB Ligand Name>
CHEMBL4785347

> <Curation/DataSource>
ChEMBL

> <Article DOI>
?

> <PMID>
33007394

> <Patent Number>
?

> <Authors>
DeRatt, LG; Christine Pietsch, E; Tanner, A; Shaffer, P; Jacoby, E; Wang, W; Kazmi, F; Zhang, X; Attar, RM; Edwards, JP; Kuduk, SD

> <Link to Ligand in BindingDB>
http://www.bindingdb.org/bind/chemsearch/marvin/MolStructure.jsp?monomerid=50554018

> <Link to Ligand-Target Pair in BindingDB>
http://www.bindingdb.org/jsp/dbsearch/PrimarySearch_ki.jsp?energyterm=kJ/mole&tag=r21&monomerid=50554018&enzyme=Dihydroorotate+dehydrogenase&column=ki&startPg=0&Increment=50&submit=Search

> <PubChem CID>
162666710

> <PubChem SID>
461692786

$$$$

  Mrv2115 07222212352D          

 37 40  0  0  0  0            999 V2000
   -2.7512    0.7634    0.0000 C   0  0  0  0  0  0  0  0  0  0  0  0
   -2.0367    1.1759    0.0000 C   0  0  0  0  0  0  0  0  0  0  0  0
   -2.0367    2.0009    0.0000 C   0  0  0  0  0  0  0  0  0  0  0  0
   -1.3222    2.4134    0.0000 C   0  0  0  0  0  0  0  0  0  0  0  0
   -0.6078    2.0009    0.0000 C   0  0  0  0  0  0  0  0  0  0  0  0
   -0.6078    1.1759    0.0000 C   0  0  0  0  0  0  0  0  0  0  0  0
    0.1067    0.7634    0.0000 F   0  0  0  0  0  0  0  0  0  0  0  0
   -1.3222    0.7634    0.0000 C   0  0  0  0  0  0  0  0  0  0  0  0
   -1.3222   -0.0616    0.0000 N   0  0  0  0  0  0  0  0  0  0  0  0
   -0.6078   -0.4741    0.0000 C   0  0  0  0  0  0  0  0  0  0  0  0
    0.1067   -0.0616    0.0000 O   0  0  0  0  0  0  0  0  0  0  0  0
   -0.6078   -1.2991    0.0000 C   0  0  0  0  0  0  0  0  0  0  0  0
    0.1067   -1.7116    0.0000 C   0  0  0  0  0  0  0  0  0  0  0  0
    0.1067   -2.5366    0.0000 C   0  0  0  0  0  0  0  0  0  0  0  0
    0.8212   -2.9491    0.0000 F   0  0  0  0  0  0  0  0  0  0  0  0
   -0.6078   -2.9491    0.0000 C   0  0  0  0  0  0  0  0  0  0  0  0
   -0.6078   -3.7741    0.0000 N   0  0  0  0  0  0  0  0  0  0  0  0
    0.0597   -4.2590    0.0000 N   0  0  0  0  0  0  0  0  0  0  0  0
   -0.1953   -5.0437    0.0000 C   0  0  0  0  0  0  0  0  0  0  0  0
    0.2897   -5.7111    0.0000 C   0  0  0  0  0  0  0  0  0  0  0  0
   -1.0203   -5.0437    0.0000 N   0  0  0  0  0  0  0  0  0  0  0  0
   -1.5052   -5.7111    0.0000 C   0  0  0  0  0  0  0  0  0  0  0  0
   -1.1696   -6.4648    0.0000 C   0  0  0  0  0  0  0  0  0  0  0  0
   -2.3257   -5.6249    0.0000 C   0  0  0  0  0  0  0  0  0  0  0  0
   -1.2752   -4.2590    0.0000 C   0  0  0  0  0  0  0  0  0  0  0  0
   -2.0598   -4.0041    0.0000 O   0  0  0  0  0  0  0  0  0  0  0  0
   -1.3222   -2.5366    0.0000 C   0  0  0  0  0  0  0  0  0  0  0  0
   -1.3222   -1.7116    0.0000 C   0  0  0  0  0  0  0  0  0  0  0  0
   -2.0367   -1.2991    0.0000 O   0  0  0  0  0  0  0  0  0  0  0  0
   -2.7512   -1.7116    0.0000 C   0  0  0  0  0  0  0  0  0  0  0  0
   -2.7512   -2.5366    0.0000 C   0  0  0  0  0  0  0  0  0  0  0  0
   -3.4656   -1.2991    0.0000 C   0  0  0  0  0  0  0  0  0  0  0  0
   -4.1801   -1.7116    0.0000 C   0  0  0  0  0  0  0  0  0  0  0  0
   -4.8946   -1.2991    0.0000 C   0  0  0  0  0  0  0  0  0  0  0  0
   -4.8946   -0.4741    0.0000 C   0  0  0  0  0  0  0  0  0  0  0  0
   -4.1801   -0.0616    0.0000 C   0  0  0  0  0  0  0  0  0  0  0  0
   -3.4656   -0.4741    0.0000 C   0  0  0  0  0  0  0  0  0  0  0  0
  1  2  1  0  0  0  0
  2  3  4  0  0  0  0
  3  4  4  0  0  0  0
  4  5  4  0  0  0  0
  5  6  4  0  0  0  0
  6  7  1  0  0  0  0
  6  8  4  0  0  0  0
  2  8  4  0  0  0  0
  8  9  1  0  0  0  0
  9 10  1  0  0  0  0
 10 11  2  0  0  0  0
 10 12  1  0  0  0  0
 12 13  4  0  0  0  0
 13 14  4  0  0  0  0
 14 15  1  0  0  0  0
 14 16  4  0  0  0  0
 16 17  1  0  0  0  0
 17 18  4  0  0  0  0
 18 19  4  0  0  0  0
 19 20  1  0  0  0  0
 19 21  4  0  0  0  0
 21 22  1  0  0  0  0
 22 23  1  0  0  0  0
 22 24  1  0  0  0  0
 21 25  4  0  0  0  0
 17 25  4  0  0  0  0
 25 26  2  0  0  0  0
 16 27  4  0  0  0  0
 27 28  4  0  0  0  0
 12 28  4  0  0  0  0
 28 29  1  0  0  0  0
 29 30  1  0  0  0  0
 30 31  1  0  0  0  0
 30 32  1  0  0  0  0
 32 33  4  0  0  0  0
 33 34  4  0  0  0  0
 34 35  4  0  0  0  0
 35 36  4  0  0  0  0
 36 37  4  0  0  0  0
 32 37  4  0  0  0  0
M  END
> <IC50(uM)>
0.034749999999999996

> <Outcome>
1.0

> <BindingDB ID>
1098598; 972444; 1098597; 972443

> <BindingDB MonomerID>
470345

> <BindingDB Ligand Name>
5-fluoro-N-(2-fluoro-6-methylphenyl)-4-[3-methyl-5-oxo-4-(propan-2-yl)-4,5-dihydro-1H-1,2,4-triazol-1-yl]-2-[(1S)-1-phenylethoxy]benzamide::US10815215, Example 7::US11130745, Example 7; 5-fluoro-N-(2-fluoro-6-methylphenyl)-4-[3-methyl-5-oxo-4-(propan-2-yl)-4,5-dihydro-1H-1,2,4-triazol-1-yl]-2-[(1S)-1-phenylethoxy]benzamide::US10815215, Example 7

> <Curation/DataSource>
US Patent

> <Article DOI>
?

> <PMID>
?

> <Patent Number>
US11130745; US10815215

> <Authors>
Gradl, SN; Nguyen, D; Eis, K; Gunther, J; Stellfeld, T; Janzer, A; Christian, S; Muller, T; Sheikh, SE; Sykes, DB; Ferrara, SJ; Krober, M; Merz, C; Niehues, M; Schafer, M; Zimmermann, K; Nising, CF; Gradl, SN; Nguyen, D; Eis, K; Gunther, J; Stellfeld, T; Janzer, A; Christian, S; Muller, T; Sheikh, SE; Zhou, HJ; Zhao, C; Sykes, DB; Ferrara, SJ; Liu, K; Krober, M; Merz, C; Niehues, M; Schafer, M; Zimmermann, K; Nising, CF

> <Link to Ligand in BindingDB>
http://www.bindingdb.org/bind/chemsearch/marvin/MolStructure.jsp?monomerid=470345

> <Link to Ligand-Target Pair in BindingDB>
http://www.bindingdb.org/jsp/dbsearch/PrimarySearch_ki.jsp?energyterm=kJ/mole&tag=r21&monomerid=470345&enzyme=Dihydroorotate+dehydrogenase&column=ki&startPg=0&Increment=50&submit=Search

> <PubChem CID>
134470354

> <PubChem SID>
441609522

$$$$

  Mrv2115 07222212352D          

 28 30  0  0  0  0            999 V2000
   -2.8579   -1.6500    0.0000 C   0  0  0  0  0  0  0  0  0  0  0  0
   -2.1434   -1.2375    0.0000 C   0  0  0  0  0  0  0  0  0  0  0  0
   -1.4289   -1.6500    0.0000 C   0  0  0  0  0  0  0  0  0  0  0  0
   -2.1434   -0.4125    0.0000 O   0  0  0  0  0  0  0  0  0  0  0  0
   -1.4289    0.0000    0.0000 C   0  0  0  0  0  0  0  0  0  0  0  0
   -0.7145   -0.4125    0.0000 O   0  0  0  0  0  0  0  0  0  0  0  0
   -1.4289    0.8250    0.0000 C   0  0  0  0  0  0  0  0  0  0  0  0
   -2.1434    1.2375    0.0000 C   0  0  0  0  0  0  0  0  0  0  0  0
   -2.1434    2.0625    0.0000 C   0  0  0  0  0  0  0  0  0  0  0  0
   -1.4289    2.4750    0.0000 C   0  0  0  0  0  0  0  0  0  0  0  0
   -0.7145    2.0625    0.0000 C   0  0  0  0  0  0  0  0  0  0  0  0
   -0.7145    1.2375    0.0000 C   0  0  0  0  0  0  0  0  0  0  0  0
    0.0000    0.8250    0.0000 C   0  0  0  0  0  0  0  0  0  0  0  0
    0.0000    0.0000    0.0000 N   0  0  0  0  0  0  0  0  0  0  0  0
    0.7145   -0.4125    0.0000 N   0  0  0  0  0  0  0  0  0  0  0  0
    1.4289   -0.0000    0.0000 C   0  0  0  0  0  0  0  0  0  0  0  0
    0.7145   -1.2375    0.0000 C   0  0  0  0  0  0  0  0  0  0  0  0
    1.3819   -1.7224    0.0000 N   0  0  0  0  0  0  0  0  0  0  0  0
    1.1270   -2.5070    0.0000 C   0  0  0  0  0  0  0  0  0  0  0  0
    1.6119   -3.1745    0.0000 C   0  0  0  0  0  0  0  0  0  0  0  0
    2.4324   -3.0882    0.0000 C   0  0  0  0  0  0  0  0  0  0  0  0
    2.9173   -3.7557    0.0000 C   0  0  0  0  0  0  0  0  0  0  0  0
    2.5817   -4.5094    0.0000 C   0  0  0  0  0  0  0  0  0  0  0  0
    1.7613   -4.5956    0.0000 C   0  0  0  0  0  0  0  0  0  0  0  0
    1.2763   -3.9282    0.0000 C   0  0  0  0  0  0  0  0  0  0  0  0
    0.4559   -4.0144    0.0000 Cl  0  0  0  0  0  0  0  0  0  0  0  0
    0.3020   -2.5070    0.0000 C   0  0  0  0  0  0  0  0  0  0  0  0
    0.0470   -1.7224    0.0000 S   0  0  0  0  0  0  0  0  0  0  0  0
  1  2  1  0  0  0  0
  2  3  1  0  0  0  0
  2  4  1  0  0  0  0
  4  5  1  0  0  0  0
  5  6  2  0  0  0  0
  5  7  1  0  0  0  0
  7  8  4  0  0  0  0
  8  9  4  0  0  0  0
  9 10  4  0  0  0  0
 10 11  4  0  0  0  0
 11 12  4  0  0  0  0
  7 12  4  0  0  0  0
 12 13  1  0  0  0  0
 13 14  2  0  0  0  0
 14 15  1  0  0  0  0
 15 16  1  0  0  0  0
 15 17  1  0  0  0  0
 17 18  4  0  0  0  0
 18 19  4  0  0  0  0
 19 20  1  0  0  0  0
 20 21  4  0  0  0  0
 21 22  4  0  0  0  0
 22 23  4  0  0  0  0
 23 24  4  0  0  0  0
 24 25  4  0  0  0  0
 20 25  4  0  0  0  0
 25 26  1  0  0  0  0
 19 27  4  0  0  0  0
 27 28  4  0  0  0  0
 17 28  4  0  0  0  0
M  END
> <IC50(uM)>
3.366

> <Outcome>
0.0

> <BindingDB ID>
1001150

> <BindingDB MonomerID>
482836

> <BindingDB Ligand Name>
US10919869, No.  B3

> <Curation/DataSource>
US Patent

> <Article DOI>
?

> <PMID>
?

> <Patent Number>
US10919869

> <Authors>
Li, H; Xu, Y; Wang, R; Zhao, Z; Song, W; Xu, L

> <Link to Ligand in BindingDB>
http://www.bindingdb.org/bind/chemsearch/marvin/MolStructure.jsp?monomerid=482836

> <Link to Ligand-Target Pair in BindingDB>
http://www.bindingdb.org/jsp/dbsearch/PrimarySearch_ki.jsp?energyterm=kJ/mole&tag=r21&monomerid=482836&enzyme=Dihydroorotate+dehydrogenase&column=ki&startPg=0&Increment=50&submit=Search

> <PubChem CID>
132157944

> <PubChem SID>
443551976

$$$$

  Mrv2115 07222212352D          

 25 27  0  0  0  0            999 V2000
    0.7145   -3.7125    0.0000 O   0  0  0  0  0  0  0  0  0  0  0  0
    1.4289   -4.1250    0.0000 C   0  0  0  0  0  0  0  0  0  0  0  0
    2.1434   -3.7125    0.0000 O   0  0  0  0  0  0  0  0  0  0  0  0
    1.4289   -4.9500    0.0000 C   0  0  0  0  0  0  0  0  0  0  0  0
    2.0964   -5.4349    0.0000 C   0  0  0  0  0  0  0  0  0  0  0  0
    2.8810   -5.1800    0.0000 C   0  0  0  0  0  0  0  0  0  0  0  0
    3.4941   -5.7320    0.0000 O   0  0  0  0  0  0  0  0  0  0  0  0
    3.0525   -4.3730    0.0000 N   0  0  0  0  0  0  0  0  0  0  0  0
    3.8372   -4.1181    0.0000 C   0  0  0  0  0  0  0  0  0  0  0  0
    4.0087   -3.3111    0.0000 C   0  0  0  0  0  0  0  0  0  0  0  0
    4.7933   -3.0562    0.0000 C   0  0  0  0  0  0  0  0  0  0  0  0
    5.4064   -3.6082    0.0000 C   0  0  0  0  0  0  0  0  0  0  0  0
    6.1910   -3.3533    0.0000 C   0  0  0  0  0  0  0  0  0  0  0  0
    6.3625   -2.5463    0.0000 C   0  0  0  0  0  0  0  0  0  0  0  0
    7.1472   -2.2913    0.0000 C   0  0  0  0  0  0  0  0  0  0  0  0
    7.7603   -2.8434    0.0000 C   0  0  0  0  0  0  0  0  0  0  0  0
    7.5887   -3.6503    0.0000 C   0  0  0  0  0  0  0  0  0  0  0  0
    8.2018   -4.2024    0.0000 O   0  0  0  0  0  0  0  0  0  0  0  0
    6.8041   -3.9053    0.0000 C   0  0  0  0  0  0  0  0  0  0  0  0
    5.2349   -4.4152    0.0000 C   0  0  0  0  0  0  0  0  0  0  0  0
    4.4502   -4.6701    0.0000 C   0  0  0  0  0  0  0  0  0  0  0  0
    4.2787   -5.4771    0.0000 F   0  0  0  0  0  0  0  0  0  0  0  0
    1.8414   -6.2195    0.0000 C   0  0  0  0  0  0  0  0  0  0  0  0
    1.0164   -6.2195    0.0000 C   0  0  0  0  0  0  0  0  0  0  0  0
    0.7615   -5.4349    0.0000 C   0  0  0  0  0  0  0  0  0  0  0  0
  1  2  2  0  0  0  0
  2  3  1  0  0  0  0
  2  4  1  0  0  0  0
  4  5  2  0  0  0  0
  5  6  1  0  0  0  0
  6  7  2  0  0  0  0
  6  8  1  0  0  0  0
  8  9  1  0  0  0  0
  9 10  4  0  0  0  0
 10 11  4  0  0  0  0
 11 12  4  0  0  0  0
 12 13  1  0  0  0  0
 13 14  4  0  0  0  0
 14 15  4  0  0  0  0
 15 16  4  0  0  0  0
 16 17  4  0  0  0  0
 17 18  1  0  0  0  0
 17 19  4  0  0  0  0
 13 19  4  0  0  0  0
 12 20  4  0  0  0  0
 20 21  4  0  0  0  0
  9 21  4  0  0  0  0
 21 22  1  0  0  0  0
  5 23  1  0  0  0  0
 23 24  1  0  0  0  0
 24 25  1  0  0  0  0
  4 25  1  0  0  0  0
M  END
> <IC50(uM)>
0.61

> <Outcome>
1.0

> <BindingDB ID>
50251725

> <BindingDB MonomerID>
50137309

> <BindingDB Ligand Name>
2-(3-Fluoro-3'-hydroxy-biphenyl-4-ylcarbamoyl)-cyclopent-1-enecarboxylic acid::CHEMBL345685

> <Curation/DataSource>
ChEMBL

> <Article DOI>
10.1016/j.bmcl.2003.10.021

> <PMID>
14684297

> <Patent Number>
?

> <Authors>
Leban, J; Saeb, W; Garcia, G; Baumgartner, R; Kramer, B

> <Link to Ligand in BindingDB>
http://www.bindingdb.org/bind/chemsearch/marvin/MolStructure.jsp?monomerid=50137309

> <Link to Ligand-Target Pair in BindingDB>
http://www.bindingdb.org/jsp/dbsearch/PrimarySearch_ki.jsp?energyterm=kJ/mole&tag=r21&monomerid=50137309&enzyme=Dihydroorotate+dehydrogenase&column=ki&startPg=0&Increment=50&submit=Search

> <PubChem CID>
44369749

> <PubChem SID>
104027475

$$$$

  Mrv2115 07222212352D          

 36 38  0  0  0  0            999 V2000
    4.2868   -2.4750    0.0000 C   0  0  0  0  0  0  0  0  0  0  0  0
    3.5724   -2.8875    0.0000 C   0  0  0  0  0  0  0  0  0  0  0  0
    2.8579   -2.4750    0.0000 O   0  0  0  0  0  0  0  0  0  0  0  0
    2.1434   -2.8875    0.0000 C   0  0  0  0  0  0  0  0  0  0  0  0
    2.1434   -3.7125    0.0000 C   0  0  0  0  0  0  0  0  0  0  0  0
    1.4289   -4.1250    0.0000 C   0  0  0  0  0  0  0  0  0  0  0  0
    1.4289   -4.9500    0.0000 N   0  0  0  0  0  0  0  0  0  0  0  0
    2.0964   -5.4349    0.0000 N   0  0  0  0  0  0  0  0  0  0  0  0
    1.8414   -6.2195    0.0000 C   0  0  0  0  0  0  0  0  0  0  0  0
    2.3264   -6.8870    0.0000 C   0  0  0  0  0  0  0  0  0  0  0  0
    2.8113   -7.5544    0.0000 C   0  0  0  0  0  0  0  0  0  0  0  0
    2.9938   -6.4021    0.0000 C   0  0  0  0  0  0  0  0  0  0  0  0
    1.6589   -7.3719    0.0000 O   0  0  0  0  0  0  0  0  0  0  0  0
    1.0164   -6.2195    0.0000 N   0  0  0  0  0  0  0  0  0  0  0  0
    0.5315   -6.8870    0.0000 C   0  0  0  0  0  0  0  0  0  0  0  0
    0.7615   -5.4349    0.0000 C   0  0  0  0  0  0  0  0  0  0  0  0
   -0.0231   -5.1800    0.0000 O   0  0  0  0  0  0  0  0  0  0  0  0
    0.7145   -3.7125    0.0000 C   0  0  0  0  0  0  0  0  0  0  0  0
    0.0000   -4.1250    0.0000 F   0  0  0  0  0  0  0  0  0  0  0  0
    0.7145   -2.8875    0.0000 C   0  0  0  0  0  0  0  0  0  0  0  0
    1.4289   -2.4750    0.0000 C   0  0  0  0  0  0  0  0  0  0  0  0
    1.4289   -1.6500    0.0000 C   0  0  0  0  0  0  0  0  0  0  0  0
    2.1434   -1.2375    0.0000 O   0  0  0  0  0  0  0  0  0  0  0  0
    0.7145   -1.2375    0.0000 N   0  0  0  0  0  0  0  0  0  0  0  0
    0.7145   -0.4125    0.0000 C   0  0  0  0  0  0  0  0  0  0  0  0
    0.0000    0.0000    0.0000 C   0  0  0  0  0  0  0  0  0  0  0  0
   -0.7145   -0.4125    0.0000 F   0  0  0  0  0  0  0  0  0  0  0  0
    0.0000    0.8250    0.0000 C   0  0  0  0  0  0  0  0  0  0  0  0
    0.7145    1.2375    0.0000 C   0  0  0  0  0  0  0  0  0  0  0  0
    1.4289    0.8250    0.0000 C   0  0  0  0  0  0  0  0  0  0  0  0
    1.4289    0.0000    0.0000 C   0  0  0  0  0  0  0  0  0  0  0  0
    2.1434   -0.4125    0.0000 F   0  0  0  0  0  0  0  0  0  0  0  0
    3.5724   -3.7125    0.0000 C   0  0  0  0  0  0  0  0  0  0  0  0
    2.7474   -3.7125    0.0000 F   0  0  0  0  0  0  0  0  0  0  0  0
    4.3974   -3.7125    0.0000 F   0  0  0  0  0  0  0  0  0  0  0  0
    3.5724   -4.5375    0.0000 F   0  0  0  0  0  0  0  0  0  0  0  0
  1  2  1  0  0  0  0
  2  3  1  0  0  0  0
  3  4  1  0  0  0  0
  4  5  4  0  0  0  0
  5  6  4  0  0  0  0
  6  7  1  0  0  0  0
  7  8  4  0  0  0  0
  8  9  4  0  0  0  0
  9 10  1  0  0  0  0
 10 11  1  0  0  0  0
 10 12  1  0  0  0  0
 10 13  1  0  0  0  0
  9 14  4  0  0  0  0
 14 15  1  0  0  0  0
 14 16  4  0  0  0  0
  7 16  4  0  0  0  0
 16 17  2  0  0  0  0
  6 18  4  0  0  0  0
 18 19  1  0  0  0  0
 18 20  4  0  0  0  0
 20 21  4  0  0  0  0
  4 21  4  0  0  0  0
 21 22  1  0  0  0  0
 22 23  2  0  0  0  0
 22 24  1  0  0  0  0
 24 25  1  0  0  0  0
 25 26  4  0  0  0  0
 26 27  1  0  0  0  0
 26 28  4  0  0  0  0
 28 29  4  0  0  0  0
 29 30  4  0  0  0  0
 30 31  4  0  0  0  0
 25 31  4  0  0  0  0
 31 32  1  0  0  0  0
  2 33  1  0  0  0  0
 33 34  1  0  0  0  0
 33 35  1  0  0  0  0
 33 36  1  0  0  0  0
M  END
> <IC50(uM)>
0.013099999999999999

> <Outcome>
1.0

> <BindingDB ID>
972564; 1098718

> <BindingDB MonomerID>
470438

> <BindingDB Ligand Name>
N-(2,6-difluorophenyl)-5-fluoro-4-[3-(2-hydroxypropan-2-yl)-4-methyl-5-oxo-4,5-dihydro-1H-1,2,4-triazol-1-yl]-2-{[(2S)-1,1,1-trifluoropropan-2-yl]oxy}benzamide::US10815215, Example 106; N-(2,6-difluorophenyl)-5-fluoro-4-[3-(2-hydroxypropan-2-yl)-4-methyl-5-oxo-4,5-dihydro-1H-1,2,4-triazol-1-yl]-2-{[(2S)-1,1,1-trifluoropropan-2-yl]oxy}benzamide::US10815215, Example 106::US11130745, Example 106

> <Curation/DataSource>
US Patent

> <Article DOI>
?

> <PMID>
?

> <Patent Number>
US10815215; US11130745

> <Authors>
Gradl, SN; Nguyen, D; Eis, K; Gunther, J; Stellfeld, T; Janzer, A; Christian, S; Muller, T; Sheikh, SE; Zhou, HJ; Zhao, C; Sykes, DB; Ferrara, SJ; Liu, K; Krober, M; Merz, C; Niehues, M; Schafer, M; Zimmermann, K; Nising, CF; Gradl, SN; Nguyen, D; Eis, K; Gunther, J; Stellfeld, T; Janzer, A; Christian, S; Muller, T; Sheikh, SE; Sykes, DB; Ferrara, SJ; Krober, M; Merz, C; Niehues, M; Schafer, M; Zimmermann, K; Nising, CF

> <Link to Ligand in BindingDB>
http://www.bindingdb.org/bind/chemsearch/marvin/MolStructure.jsp?monomerid=470438

> <Link to Ligand-Target Pair in BindingDB>
http://www.bindingdb.org/jsp/dbsearch/PrimarySearch_ki.jsp?energyterm=kJ/mole&tag=r21&monomerid=470438&enzyme=Dihydroorotate+dehydrogenase&column=ki&startPg=0&Increment=50&submit=Search

> <PubChem CID>
134469940

> <PubChem SID>
441609615

$$$$

  Mrv2115 07222212352D          

 26 28  0  0  0  0            999 V2000
    4.0668    2.3479    0.0000 C   0  0  0  0  0  0  0  0  0  0  0  0
    3.3523    1.9354    0.0000 C   0  0  0  0  0  0  0  0  0  0  0  0
    3.3523    1.1104    0.0000 C   0  0  0  0  0  0  0  0  0  0  0  0
    2.6378    0.6979    0.0000 C   0  0  0  0  0  0  0  0  0  0  0  0
    2.6378   -0.1271    0.0000 N   0  0  0  0  0  0  0  0  0  0  0  0
    3.3523   -0.5396    0.0000 C   0  0  0  0  0  0  0  0  0  0  0  0
    4.0668   -0.1271    0.0000 C   0  0  0  0  0  0  0  0  0  0  0  0
    4.7812   -0.5396    0.0000 C   0  0  0  0  0  0  0  0  0  0  0  0
    4.7812   -1.3646    0.0000 C   0  0  0  0  0  0  0  0  0  0  0  0
    5.4957   -1.7771    0.0000 S   0  0  0  0  0  0  0  0  0  0  0  0
    6.2102   -2.1896    0.0000 F   0  0  0  0  0  0  0  0  0  0  0  0
    4.7812   -2.1896    0.0000 F   0  0  0  0  0  0  0  0  0  0  0  0
    5.4957   -2.6021    0.0000 F   0  0  0  0  0  0  0  0  0  0  0  0
    6.2102   -1.3646    0.0000 F   0  0  0  0  0  0  0  0  0  0  0  0
    5.4957   -0.9521    0.0000 F   0  0  0  0  0  0  0  0  0  0  0  0
    4.0668   -1.7771    0.0000 C   0  0  0  0  0  0  0  0  0  0  0  0
    3.3523   -1.3646    0.0000 C   0  0  0  0  0  0  0  0  0  0  0  0
    1.9233    1.1104    0.0000 N   0  0  0  0  0  0  0  0  0  0  0  0
    1.1387    0.8555    0.0000 N   0  0  0  0  0  0  0  0  0  0  0  0
    0.6538    1.5229    0.0000 C   0  0  0  0  0  0  0  0  0  0  0  0
   -0.1712    1.5229    0.0000 C   0  0  0  0  0  0  0  0  0  0  0  0
   -0.5837    0.8085    0.0000 C   0  0  0  0  0  0  0  0  0  0  0  0
   -0.5837    2.2374    0.0000 C   0  0  0  0  0  0  0  0  0  0  0  0
    1.1387    2.1904    0.0000 N   0  0  0  0  0  0  0  0  0  0  0  0
    1.9233    1.9354    0.0000 C   0  0  0  0  0  0  0  0  0  0  0  0
    2.6378    2.3479    0.0000 N   0  0  0  0  0  0  0  0  0  0  0  0
  1  2  1  0  0  0  0
  2  3  4  0  0  0  0
  3  4  4  0  0  0  0
  4  5  1  0  0  0  0
  5  6  1  0  0  0  0
  6  7  4  0  0  0  0
  7  8  4  0  0  0  0
  8  9  4  0  0  0  0
  9 10  1  0  0  0  0
 10 11  1  0  0  0  0
 10 12  1  0  0  0  0
 10 13  1  0  0  0  0
 10 14  1  0  0  0  0
 10 15  1  0  0  0  0
  9 16  4  0  0  0  0
 16 17  4  0  0  0  0
  6 17  4  0  0  0  0
  4 18  4  0  0  0  0
 18 19  4  0  0  0  0
 19 20  4  0  0  0  0
 20 21  1  0  0  0  0
 21 22  1  0  0  0  0
 21 23  1  0  0  0  0
 20 24  4  0  0  0  0
 24 25  4  0  0  0  0
 18 25  4  0  0  0  0
 25 26  4  0  0  0  0
  2 26  4  0  0  0  0
M  END
> <IC50(uM)>
100.0

> <Outcome>
0.0

> <BindingDB ID>
50720171

> <BindingDB MonomerID>
50365241

> <BindingDB Ligand Name>
CHEMBL1956269::US9238653, Table 5, Compound 51

> <Curation/DataSource>
ChEMBL

> <Article DOI>
10.1021/jm200592f

> <PMID>
21696174

> <Patent Number>
?

> <Authors>
Coteron, JM; Marco, M; Esquivias, J; Deng, X; White, KL; White, J; Koltun, M; El Mazouni, F; Kokkonda, S; Katneni, K; Bhamidipati, R; Shackleford, DM; Angulo-Barturen, I; Ferrer, SB; Jimenez-Diaz, MB; Gamo, FJ; Goldsmith, EJ; Charman, WN; Bathurst, I; Floyd, D; Matthews, D; Burrows, JN; Rathod, PK; Charman, SA; Phillips, MA

> <Link to Ligand in BindingDB>
http://www.bindingdb.org/bind/chemsearch/marvin/MolStructure.jsp?monomerid=50365241

> <Link to Ligand-Target Pair in BindingDB>
http://www.bindingdb.org/jsp/dbsearch/PrimarySearch_ki.jsp?energyterm=kJ/mole&tag=r21&monomerid=50365241&enzyme=Dihydroorotate+dehydrogenase&column=ki&startPg=0&Increment=50&submit=Search

> <PubChem CID>
51347540

> <PubChem SID>
136969303

$$$$

  Mrv2115 07222212352D          

 36 39  0  0  0  0            999 V2000
   -5.2708    1.4423    0.0000 C   0  0  0  0  0  0  0  0  0  0  0  0
   -5.6833    0.7279    0.0000 C   0  0  0  0  0  0  0  0  0  0  0  0
   -6.5083    0.7279    0.0000 C   0  0  0  0  0  0  0  0  0  0  0  0
   -6.9208    0.0134    0.0000 C   0  0  0  0  0  0  0  0  0  0  0  0
   -6.5083   -0.7011    0.0000 C   0  0  0  0  0  0  0  0  0  0  0  0
   -5.6833   -0.7011    0.0000 C   0  0  0  0  0  0  0  0  0  0  0  0
   -5.2708   -1.4156    0.0000 F   0  0  0  0  0  0  0  0  0  0  0  0
   -5.2708    0.0134    0.0000 C   0  0  0  0  0  0  0  0  0  0  0  0
   -4.4458    0.0134    0.0000 N   0  0  0  0  0  0  0  0  0  0  0  0
   -4.0333   -0.7011    0.0000 C   0  0  0  0  0  0  0  0  0  0  0  0
   -4.4458   -1.4156    0.0000 O   0  0  0  0  0  0  0  0  0  0  0  0
   -3.2083   -0.7011    0.0000 C   0  0  0  0  0  0  0  0  0  0  0  0
   -2.7958    0.0134    0.0000 C   0  0  0  0  0  0  0  0  0  0  0  0
   -1.9708    0.0134    0.0000 C   0  0  0  0  0  0  0  0  0  0  0  0
   -1.5583    0.7279    0.0000 F   0  0  0  0  0  0  0  0  0  0  0  0
   -1.5583   -0.7011    0.0000 C   0  0  0  0  0  0  0  0  0  0  0  0
   -0.7333   -0.7011    0.0000 N   0  0  0  0  0  0  0  0  0  0  0  0
   -0.2483   -1.3685    0.0000 N   0  0  0  0  0  0  0  0  0  0  0  0
    0.5363   -1.1136    0.0000 C   0  0  0  0  0  0  0  0  0  0  0  0
    0.5363   -0.2886    0.0000 N   0  0  0  0  0  0  0  0  0  0  0  0
   -0.2483   -0.0336    0.0000 C   0  0  0  0  0  0  0  0  0  0  0  0
   -0.5033    0.7510    0.0000 O   0  0  0  0  0  0  0  0  0  0  0  0
    1.1813    0.2258    0.0000 C   0  0  0  0  0  0  0  0  0  0  0  0
    1.9856    0.0422    0.0000 C   0  0  0  0  0  0  0  0  0  0  0  0
    2.3436   -0.7011    0.0000 C   0  0  0  0  0  0  0  0  0  0  0  0
    1.9856   -1.4444    0.0000 O   0  0  0  0  0  0  0  0  0  0  0  0
    1.1813   -1.6280    0.0000 C   0  0  0  0  0  0  0  0  0  0  0  0
   -1.9708   -1.4156    0.0000 C   0  0  0  0  0  0  0  0  0  0  0  0
   -2.7958   -1.4156    0.0000 C   0  0  0  0  0  0  0  0  0  0  0  0
   -3.2083   -2.1300    0.0000 O   0  0  0  0  0  0  0  0  0  0  0  0
   -2.7958   -2.8445    0.0000 C   0  0  0  0  0  0  0  0  0  0  0  0
   -1.9708   -2.8445    0.0000 C   0  0  0  0  0  0  0  0  0  0  0  0
   -3.2083   -3.5590    0.0000 C   0  0  0  0  0  0  0  0  0  0  0  0
   -3.9227   -3.1465    0.0000 F   0  0  0  0  0  0  0  0  0  0  0  0
   -2.4938   -3.9715    0.0000 F   0  0  0  0  0  0  0  0  0  0  0  0
   -3.6208   -4.2734    0.0000 F   0  0  0  0  0  0  0  0  0  0  0  0
  1  2  1  0  0  0  0
  2  3  4  0  0  0  0
  3  4  4  0  0  0  0
  4  5  4  0  0  0  0
  5  6  4  0  0  0  0
  6  7  1  0  0  0  0
  6  8  4  0  0  0  0
  2  8  4  0  0  0  0
  8  9  1  0  0  0  0
  9 10  1  0  0  0  0
 10 11  2  0  0  0  0
 10 12  1  0  0  0  0
 12 13  4  0  0  0  0
 13 14  4  0  0  0  0
 14 15  1  0  0  0  0
 14 16  4  0  0  0  0
 16 17  1  0  0  0  0
 17 18  4  0  0  0  0
 18 19  4  0  0  0  0
 19 20  4  0  0  0  0
 20 21  4  0  0  0  0
 17 21  4  0  0  0  0
 21 22  2  0  0  0  0
 20 23  1  0  0  0  0
 23 24  1  0  0  0  0
 24 25  1  0  0  0  0
 25 26  1  0  0  0  0
 26 27  1  0  0  0  0
 19 27  1  0  0  0  0
 16 28  4  0  0  0  0
 28 29  4  0  0  0  0
 12 29  4  0  0  0  0
 29 30  1  0  0  0  0
 30 31  1  0  0  0  0
 31 32  1  0  0  0  0
 31 33  1  0  0  0  0
 33 34  1  0  0  0  0
 33 35  1  0  0  0  0
 33 36  1  0  0  0  0
M  END
> <IC50(uM)>
0.01

> <Outcome>
1.0

> <BindingDB ID>
1020630

> <BindingDB MonomerID>
490559

> <BindingDB Ligand Name>
5-fluoro-N-(2-fluoro-6-methylphenyl)-4-(3-oxo-6,7-dihydro-3H,5H-[1,2,4]triazolo[3,4-c]-[1,4]oxazepin-2(9H)-yl)-2-{[(2S)-1,1,1-trifluoropropan-2-yl]oxy}benzamide::US10968216, Example 227

> <Curation/DataSource>
US Patent

> <Article DOI>
?

> <PMID>
?

> <Patent Number>
US10968216

> <Authors>
Gradl, SN; Nguyen, D; Eis, K; Gunther, J; Stellfeld, T; Janzer, A; Christian, S; Mueller, T; Sheikh, SE; Zhou, HJ; Zhao, C; Sykes, DB; Ferrara, SJ; Liu, K; Herbert, SA; Merz, C; Niehues, M; Nising, CF; Schafer, M; Zimmermann, K; Knablein, J; Thede, K; Faupel, T

> <Link to Ligand in BindingDB>
http://www.bindingdb.org/bind/chemsearch/marvin/MolStructure.jsp?monomerid=490559

> <Link to Ligand-Target Pair in BindingDB>
http://www.bindingdb.org/jsp/dbsearch/PrimarySearch_ki.jsp?energyterm=kJ/mole&tag=r21&monomerid=490559&enzyme=Dihydroorotate+dehydrogenase&column=ki&startPg=0&Increment=50&submit=Search

> <PubChem CID>
134474432

> <PubChem SID>
447117285

$$$$

  Mrv2115 07222212352D          

 23 25  0  0  0  0            999 V2000
    4.2787   -3.0021    0.0000 C   0  0  0  0  0  0  0  0  0  0  0  0
    4.9932   -2.5896    0.0000 C   0  0  0  0  0  0  0  0  0  0  0  0
    5.7077   -3.0021    0.0000 C   0  0  0  0  0  0  0  0  0  0  0  0
    6.4221   -2.5896    0.0000 N   0  0  0  0  0  0  0  0  0  0  0  0
    7.1366   -3.0021    0.0000 C   0  0  0  0  0  0  0  0  0  0  0  0
    7.1366   -3.8271    0.0000 O   0  0  0  0  0  0  0  0  0  0  0  0
    7.8511   -2.5896    0.0000 C   0  0  0  0  0  0  0  0  0  0  0  0
    7.9373   -1.7691    0.0000 C   0  0  0  0  0  0  0  0  0  0  0  0
    7.3242   -1.2171    0.0000 O   0  0  0  0  0  0  0  0  0  0  0  0
    8.7443   -1.5976    0.0000 C   0  0  0  0  0  0  0  0  0  0  0  0
    9.1568   -2.3120    0.0000 S   0  0  0  0  0  0  0  0  0  0  0  0
    8.6047   -2.9251    0.0000 C   0  0  0  0  0  0  0  0  0  0  0  0
    8.7763   -3.7321    0.0000 N   0  0  0  0  0  0  0  0  0  0  0  0
    9.5609   -3.9870    0.0000 C   0  0  0  0  0  0  0  0  0  0  0  0
   10.1740   -3.4350    0.0000 C   0  0  0  0  0  0  0  0  0  0  0  0
   10.9586   -3.6900    0.0000 C   0  0  0  0  0  0  0  0  0  0  0  0
   11.1301   -4.4969    0.0000 C   0  0  0  0  0  0  0  0  0  0  0  0
   11.9148   -4.7519    0.0000 C   0  0  0  0  0  0  0  0  0  0  0  0
   12.0863   -5.5588    0.0000 C   0  0  0  0  0  0  0  0  0  0  0  0
   11.4732   -6.1109    0.0000 C   0  0  0  0  0  0  0  0  0  0  0  0
   10.6886   -5.8559    0.0000 C   0  0  0  0  0  0  0  0  0  0  0  0
   10.5170   -5.0490    0.0000 C   0  0  0  0  0  0  0  0  0  0  0  0
    9.7324   -4.7940    0.0000 C   0  0  0  0  0  0  0  0  0  0  0  0
  1  2  1  0  0  0  0
  2  3  1  0  0  0  0
  3  4  1  0  0  0  0
  4  5  1  0  0  0  0
  5  6  2  0  0  0  0
  5  7  1  0  0  0  0
  7  8  4  0  0  0  0
  8  9  1  0  0  0  0
  8 10  4  0  0  0  0
 10 11  4  0  0  0  0
 11 12  4  0  0  0  0
  7 12  4  0  0  0  0
 12 13  1  0  0  0  0
 13 14  1  0  0  0  0
 14 15  4  0  0  0  0
 15 16  4  0  0  0  0
 16 17  4  0  0  0  0
 17 18  4  0  0  0  0
 18 19  4  0  0  0  0
 19 20  4  0  0  0  0
 20 21  4  0  0  0  0
 21 22  4  0  0  0  0
 17 22  4  0  0  0  0
 22 23  4  0  0  0  0
 14 23  4  0  0  0  0
M  END
> <IC50(uM)>
50.0

> <Outcome>
0.0

> <BindingDB ID>
51079149

> <BindingDB MonomerID>
50441257

> <BindingDB Ligand Name>
CHEMBL2431492

> <Curation/DataSource>
ChEMBL

> <Article DOI>
10.1021/jm400938g

> <PMID>
24073986

> <Patent Number>
?

> <Authors>
Xu, M; Zhu, J; Diao, Y; Zhou, H; Ren, X; Sun, D; Huang, J; Han, D; Zhao, Z; Zhu, L; Xu, Y; Li, H

> <Link to Ligand in BindingDB>
http://www.bindingdb.org/bind/chemsearch/marvin/MolStructure.jsp?monomerid=50441257

> <Link to Ligand-Target Pair in BindingDB>
http://www.bindingdb.org/jsp/dbsearch/PrimarySearch_ki.jsp?energyterm=kJ/mole&tag=r21&monomerid=50441257&enzyme=Dihydroorotate+dehydrogenase&column=ki&startPg=0&Increment=50&submit=Search

> <PubChem CID>
91898818

> <PubChem SID>
175453574

$$$$

  Mrv2115 07222212352D          

 29 32  0  0  0  0            999 V2000
   -2.1434   -3.7125    0.0000 C   0  0  0  0  0  0  0  0  0  0  0  0
   -2.1434   -2.8875    0.0000 O   0  0  0  0  0  0  0  0  0  0  0  0
   -1.4289   -2.4750    0.0000 C   0  0  0  0  0  0  0  0  0  0  0  0
   -1.4289   -1.6500    0.0000 C   0  0  0  0  0  0  0  0  0  0  0  0
   -0.7145   -1.2375    0.0000 C   0  0  0  0  0  0  0  0  0  0  0  0
    0.0000   -1.6500    0.0000 C   0  0  0  0  0  0  0  0  0  0  0  0
    0.7145   -1.2375    0.0000 C   0  0  0  0  0  0  0  0  0  0  0  0
    0.7145   -0.4125    0.0000 C   0  0  0  0  0  0  0  0  0  0  0  0
    1.4289    0.0000    0.0000 C   0  0  0  0  0  0  0  0  0  0  0  0
    1.4289    0.8250    0.0000 C   0  0  0  0  0  0  0  0  0  0  0  0
    2.1434    1.2375    0.0000 O   0  0  0  0  0  0  0  0  0  0  0  0
    2.1434    2.0625    0.0000 C   0  0  0  0  0  0  0  0  0  0  0  0
    2.8579    2.4750    0.0000 C   0  0  0  0  0  0  0  0  0  0  0  0
    2.8579    3.3000    0.0000 C   0  0  0  0  0  0  0  0  0  0  0  0
    3.5724    3.7125    0.0000 C   0  0  0  0  0  0  0  0  0  0  0  0
    4.2868    3.3000    0.0000 C   0  0  0  0  0  0  0  0  0  0  0  0
    4.2868    2.4750    0.0000 C   0  0  0  0  0  0  0  0  0  0  0  0
    3.5724    2.0625    0.0000 C   0  0  0  0  0  0  0  0  0  0  0  0
    2.1434   -0.4125    0.0000 C   0  0  0  0  0  0  0  0  0  0  0  0
    2.8579    0.0000    0.0000 C   0  0  0  0  0  0  0  0  0  0  0  0
    3.5724   -0.4125    0.0000 C   0  0  0  0  0  0  0  0  0  0  0  0
    4.2868   -0.0000    0.0000 Cl  0  0  0  0  0  0  0  0  0  0  0  0
    3.5724   -1.2375    0.0000 C   0  0  0  0  0  0  0  0  0  0  0  0
    4.2868   -1.6500    0.0000 Cl  0  0  0  0  0  0  0  0  0  0  0  0
    2.8579   -1.6500    0.0000 C   0  0  0  0  0  0  0  0  0  0  0  0
    2.1434   -1.2375    0.0000 C   0  0  0  0  0  0  0  0  0  0  0  0
    1.4289   -1.6500    0.0000 N   0  0  0  0  0  0  0  0  0  0  0  0
    0.0000   -2.4750    0.0000 C   0  0  0  0  0  0  0  0  0  0  0  0
   -0.7145   -2.8875    0.0000 C   0  0  0  0  0  0  0  0  0  0  0  0
  1  2  1  0  0  0  0
  2  3  1  0  0  0  0
  3  4  4  0  0  0  0
  4  5  4  0  0  0  0
  5  6  4  0  0  0  0
  6  7  1  0  0  0  0
  7  8  4  0  0  0  0
  8  9  4  0  0  0  0
  9 10  1  0  0  0  0
 10 11  1  0  0  0  0
 11 12  1  0  0  0  0
 12 13  1  0  0  0  0
 13 14  4  0  0  0  0
 14 15  4  0  0  0  0
 15 16  4  0  0  0  0
 16 17  4  0  0  0  0
 17 18  4  0  0  0  0
 13 18  4  0  0  0  0
  9 19  4  0  0  0  0
 19 20  4  0  0  0  0
 20 21  4  0  0  0  0
 21 22  1  0  0  0  0
 21 23  4  0  0  0  0
 23 24  1  0  0  0  0
 23 25  4  0  0  0  0
 25 26  4  0  0  0  0
 19 26  4  0  0  0  0
 26 27  4  0  0  0  0
  7 27  4  0  0  0  0
  6 28  4  0  0  0  0
 28 29  4  0  0  0  0
  3 29  4  0  0  0  0
M  END
> <IC50(uM)>
15.48

> <Outcome>
0.0

> <BindingDB ID>
51311344

> <BindingDB MonomerID>
50532169

> <BindingDB Ligand Name>
CHEMBL4460949

> <Curation/DataSource>
ChEMBL

> <Article DOI>
10.1016/j.bmcl.2019.01.038

> <PMID>
30738663

> <Patent Number>
?

> <Authors>
Vyas, VK; Qureshi, G; Oza, D; Patel, H; Parmar, K; Patel, P; Ghate, MD

> <Link to Ligand in BindingDB>
http://www.bindingdb.org/bind/chemsearch/marvin/MolStructure.jsp?monomerid=50532169

> <Link to Ligand-Target Pair in BindingDB>
http://www.bindingdb.org/jsp/dbsearch/PrimarySearch_ki.jsp?energyterm=kJ/mole&tag=r21&monomerid=50532169&enzyme=Dihydroorotate+dehydrogenase&column=ki&startPg=0&Increment=50&submit=Search

> <PubChem CID>
155528177

> <PubChem SID>
440740751

$$$$

  Mrv2115 07222212352D          

 25 26  0  0  0  0            999 V2000
    3.5724   -7.0125    0.0000 C   0  0  0  0  0  0  0  0  0  0  0  0
    3.5724   -6.1875    0.0000 C   0  0  0  0  0  0  0  0  0  0  0  0
    4.2868   -5.7750    0.0000 O   0  0  0  0  0  0  0  0  0  0  0  0
    4.2868   -4.9500    0.0000 C   0  0  0  0  0  0  0  0  0  0  0  0
    3.5724   -4.5375    0.0000 O   0  0  0  0  0  0  0  0  0  0  0  0
    5.0013   -4.5375    0.0000 C   0  0  0  0  0  0  0  0  0  0  0  0
    5.0013   -3.7125    0.0000 C   0  0  0  0  0  0  0  0  0  0  0  0
    5.7158   -3.3000    0.0000 N   0  0  0  0  0  0  0  0  0  0  0  0
    5.7158   -2.4750    0.0000 C   0  0  0  0  0  0  0  0  0  0  0  0
    5.0013   -2.0625    0.0000 C   0  0  0  0  0  0  0  0  0  0  0  0
    5.0013   -1.2375    0.0000 C   0  0  0  0  0  0  0  0  0  0  0  0
    5.7158   -0.8250    0.0000 C   0  0  0  0  0  0  0  0  0  0  0  0
    6.4302   -1.2375    0.0000 C   0  0  0  0  0  0  0  0  0  0  0  0
    7.1447   -0.8250    0.0000 C   0  0  0  0  0  0  0  0  0  0  0  0
    7.1447    0.0000    0.0000 C   0  0  0  0  0  0  0  0  0  0  0  0
    7.8592    0.4125    0.0000 C   0  0  0  0  0  0  0  0  0  0  0  0
    8.5737    0.0000    0.0000 C   0  0  0  0  0  0  0  0  0  0  0  0
    8.5737   -0.8250    0.0000 C   0  0  0  0  0  0  0  0  0  0  0  0
    7.8592   -1.2375    0.0000 C   0  0  0  0  0  0  0  0  0  0  0  0
    6.4302   -2.0625    0.0000 C   0  0  0  0  0  0  0  0  0  0  0  0
    5.7158   -4.9500    0.0000 C   0  0  0  0  0  0  0  0  0  0  0  0
    6.4302   -4.5375    0.0000 O   0  0  0  0  0  0  0  0  0  0  0  0
    5.7158   -5.7750    0.0000 O   0  0  0  0  0  0  0  0  0  0  0  0
    6.4302   -6.1875    0.0000 C   0  0  0  0  0  0  0  0  0  0  0  0
    6.4302   -7.0125    0.0000 C   0  0  0  0  0  0  0  0  0  0  0  0
  1  2  1  0  0  0  0
  2  3  1  0  0  0  0
  3  4  1  0  0  0  0
  4  5  2  0  0  0  0
  4  6  1  0  0  0  0
  7  6  1  4  0  0  0
  7  8  2  0  0  0  0
  8  9  1  0  0  0  0
  9 10  4  0  0  0  0
 10 11  4  0  0  0  0
 11 12  4  0  0  0  0
 12 13  4  0  0  0  0
 13 14  1  0  0  0  0
 14 15  4  0  0  0  0
 15 16  4  0  0  0  0
 16 17  4  0  0  0  0
 17 18  4  0  0  0  0
 18 19  4  0  0  0  0
 14 19  4  0  0  0  0
 13 20  4  0  0  0  0
  9 20  4  0  0  0  0
  6 21  1  0  0  0  0
 21 22  2  0  0  0  0
 21 23  1  0  0  0  0
 23 24  1  0  0  0  0
 24 25  1  0  0  0  0
M  END
> <IC50(uM)>
104.2

> <Outcome>
0.0

> <BindingDB ID>
26837

> <BindingDB MonomerID>
14709

> <BindingDB Ligand Name>
1,3-diethyl 2-{[(3-phenylphenyl)amino]methylidene}propanedioate::Diethyl 2-((biphenyl-3-ylamino)methylene)malonate::biphenyl compound 14

> <Curation/DataSource>
Curated from the literature by BindingDB

> <Article DOI>
10.1021/jm060687j

> <PMID>
17228860

> <Patent Number>
?

> <Authors>
Heikkila, T; Ramsey, C; Davies, M; Galtier, C; Stead, AM; Johnson, AP; Fishwick, CW; Boa, AN; McConkey, GA

> <Link to Ligand in BindingDB>
http://www.bindingdb.org/bind/chemsearch/marvin/MolStructure.jsp?monomerid=14709

> <Link to Ligand-Target Pair in BindingDB>
http://www.bindingdb.org/jsp/dbsearch/PrimarySearch_ki.jsp?energyterm=kJ/mole&tag=r21&monomerid=14709&enzyme=Dihydroorotate+dehydrogenase&column=ki&startPg=0&Increment=50&submit=Search

> <PubChem CID>
91895907

> <PubChem SID>
46515039

$$$$

  Mrv2115 07222212352D          

 24 26  0  0  0  0            999 V2000
    1.8409   -1.9019    0.0000 C   0  0  0  0  0  0  0  0  0  0  0  0
    2.6256   -1.6470    0.0000 C   0  0  0  0  0  0  0  0  0  0  0  0
    2.8805   -0.8624    0.0000 C   0  0  0  0  0  0  0  0  0  0  0  0
    2.3956   -0.1949    0.0000 C   0  0  0  0  0  0  0  0  0  0  0  0
    2.7311    0.5587    0.0000 C   0  0  0  0  0  0  0  0  0  0  0  0
    2.2462    1.2262    0.0000 C   0  0  0  0  0  0  0  0  0  0  0  0
    2.5818    1.9799    0.0000 C   0  0  0  0  0  0  0  0  0  0  0  0
    3.4023    2.0661    0.0000 C   0  0  0  0  0  0  0  0  0  0  0  0
    3.7378    2.8198    0.0000 C   0  0  0  0  0  0  0  0  0  0  0  0
    4.0734    3.5734    0.0000 F   0  0  0  0  0  0  0  0  0  0  0  0
    2.9841    3.1553    0.0000 F   0  0  0  0  0  0  0  0  0  0  0  0
    4.4915    2.4842    0.0000 F   0  0  0  0  0  0  0  0  0  0  0  0
    3.8872    1.3987    0.0000 C   0  0  0  0  0  0  0  0  0  0  0  0
    3.5516    0.6450    0.0000 C   0  0  0  0  0  0  0  0  0  0  0  0
    4.0365   -0.0225    0.0000 Cl  0  0  0  0  0  0  0  0  0  0  0  0
    3.7055   -0.8624    0.0000 C   0  0  0  0  0  0  0  0  0  0  0  0
    3.9604   -1.6470    0.0000 N   0  0  0  0  0  0  0  0  0  0  0  0
    3.2930   -2.1319    0.0000 C   0  0  0  0  0  0  0  0  0  0  0  0
    3.2930   -2.9569    0.0000 C   0  0  0  0  0  0  0  0  0  0  0  0
    2.5785   -3.3694    0.0000 O   0  0  0  0  0  0  0  0  0  0  0  0
    4.0075   -3.3694    0.0000 N   0  0  0  0  0  0  0  0  0  0  0  0
    4.0075   -4.1944    0.0000 C   0  0  0  0  0  0  0  0  0  0  0  0
    4.4200   -4.9089    0.0000 C   0  0  0  0  0  0  0  0  0  0  0  0
    3.5950   -4.9089    0.0000 C   0  0  0  0  0  0  0  0  0  0  0  0
  1  2  1  0  0  0  0
  2  3  4  0  0  0  0
  3  4  1  0  0  0  0
  4  5  1  0  0  0  0
  5  6  4  0  0  0  0
  6  7  4  0  0  0  0
  7  8  4  0  0  0  0
  8  9  1  0  0  0  0
  9 10  1  0  0  0  0
  9 11  1  0  0  0  0
  9 12  1  0  0  0  0
  8 13  4  0  0  0  0
 13 14  4  0  0  0  0
  5 14  4  0  0  0  0
 14 15  1  0  0  0  0
  3 16  4  0  0  0  0
 16 17  4  0  0  0  0
 17 18  4  0  0  0  0
  2 18  4  0  0  0  0
 18 19  1  0  0  0  0
 19 20  2  0  0  0  0
 19 21  1  0  0  0  0
 21 22  1  0  0  0  0
 22 23  1  0  0  0  0
 23 24  1  0  0  0  0
 22 24  1  0  0  0  0
M  STY  1   1 DAT
M  SAL   1  1  17
M  SDT   1 MRV_IMPLICIT_H                                        
M  SDD   1     0.5304   -0.4125    DR    ALL  0       0  
M  SED   1 IMPL_H1
M  END
> <IC50(uM)>
100.0

> <Outcome>
0.0

> <BindingDB ID>
51330114

> <BindingDB MonomerID>
50538362

> <BindingDB Ligand Name>
CHEMBL4644619

> <Curation/DataSource>
ChEMBL

> <Article DOI>
10.1021/acs.jmedchem.0c00311

> <PMID>
32248693

> <Patent Number>
?

> <Authors>
Kokkonda, S; Deng, X; White, KL; El Mazouni, F; White, J; Shackleford, DM; Katneni, K; Chiu, FCK; Barker, H; McLaren, J; Crighton, E; Chen, G; Angulo-Barturen, I; Jimenez-Diaz, MB; Ferrer, S; Huertas-Valentin, L; Martinez-Martinez, MS; Lafuente-Monasterio, MJ; Chittimalla, R; Shahi, SP; Wittlin, S; Waterson, D; Burrows, JN; Matthews, D; Tomchick, D; Rathod, PK; Palmer, MJ; Charman, SA; Phillips, MA

> <Link to Ligand in BindingDB>
http://www.bindingdb.org/bind/chemsearch/marvin/MolStructure.jsp?monomerid=50538362

> <Link to Ligand-Target Pair in BindingDB>
http://www.bindingdb.org/jsp/dbsearch/PrimarySearch_ki.jsp?energyterm=kJ/mole&tag=r21&monomerid=50538362&enzyme=Dihydroorotate+dehydrogenase&column=ki&startPg=0&Increment=50&submit=Search

> <PubChem CID>
156018594

> <PubChem SID>
442139925

$$$$

  Mrv2115 07222212352D          

 24 27  0  0  0  0            999 V2000
    0.1526   -6.4032    0.0000 C   0  0  0  0  0  0  0  0  0  0  0  0
   -0.1830   -5.6495    0.0000 C   0  0  0  0  0  0  0  0  0  0  0  0
   -1.0034   -5.5632    0.0000 O   0  0  0  0  0  0  0  0  0  0  0  0
    0.3020   -4.9820    0.0000 C   0  0  0  0  0  0  0  0  0  0  0  0
    0.0470   -4.1974    0.0000 S   0  0  0  0  0  0  0  0  0  0  0  0
    0.7145   -3.7125    0.0000 C   0  0  0  0  0  0  0  0  0  0  0  0
    0.7145   -2.8875    0.0000 N   0  0  0  0  0  0  0  0  0  0  0  0
    1.4289   -2.4750    0.0000 C   0  0  0  0  0  0  0  0  0  0  0  0
    1.4289   -1.6500    0.0000 C   0  0  0  0  0  0  0  0  0  0  0  0
    2.1434   -1.2375    0.0000 C   0  0  0  0  0  0  0  0  0  0  0  0
    2.8579   -1.6500    0.0000 C   0  0  0  0  0  0  0  0  0  0  0  0
    3.5724   -1.2375    0.0000 C   0  0  0  0  0  0  0  0  0  0  0  0
    4.2868   -1.6500    0.0000 C   0  0  0  0  0  0  0  0  0  0  0  0
    5.0013   -1.2375    0.0000 C   0  0  0  0  0  0  0  0  0  0  0  0
    5.7158   -1.6500    0.0000 C   0  0  0  0  0  0  0  0  0  0  0  0
    5.7158   -2.4750    0.0000 C   0  0  0  0  0  0  0  0  0  0  0  0
    5.0013   -2.8875    0.0000 C   0  0  0  0  0  0  0  0  0  0  0  0
    4.2868   -2.4750    0.0000 C   0  0  0  0  0  0  0  0  0  0  0  0
    3.5724   -2.8875    0.0000 C   0  0  0  0  0  0  0  0  0  0  0  0
    2.8579   -2.4750    0.0000 C   0  0  0  0  0  0  0  0  0  0  0  0
    2.1434   -2.8875    0.0000 C   0  0  0  0  0  0  0  0  0  0  0  0
    1.3819   -4.1974    0.0000 N   0  0  0  0  0  0  0  0  0  0  0  0
    1.1270   -4.9820    0.0000 C   0  0  0  0  0  0  0  0  0  0  0  0
    1.6119   -5.6495    0.0000 C   0  0  0  0  0  0  0  0  0  0  0  0
  1  2  1  0  0  0  0
  2  3  2  0  0  0  0
  2  4  1  0  0  0  0
  4  5  4  0  0  0  0
  5  6  4  0  0  0  0
  6  7  1  0  0  0  0
  7  8  1  0  0  0  0
  8  9  4  0  0  0  0
  9 10  4  0  0  0  0
 10 11  4  0  0  0  0
 11 12  4  0  0  0  0
 12 13  4  0  0  0  0
 13 14  4  0  0  0  0
 14 15  4  0  0  0  0
 15 16  4  0  0  0  0
 16 17  4  0  0  0  0
 17 18  4  0  0  0  0
 13 18  4  0  0  0  0
 18 19  4  0  0  0  0
 19 20  4  0  0  0  0
 11 20  4  0  0  0  0
 20 21  4  0  0  0  0
  8 21  4  0  0  0  0
  6 22  4  0  0  0  0
 22 23  4  0  0  0  0
  4 23  4  0  0  0  0
 23 24  1  0  0  0  0
M  END
> <IC50(uM)>
10.0

> <Outcome>
0.0

> <BindingDB ID>
50312475

> <BindingDB MonomerID>
50071787

> <BindingDB Ligand Name>
CHEMBL3410577

> <Curation/DataSource>
ChEMBL

> <Article DOI>
10.1021/jm501127s

> <PMID>
25580811

> <Patent Number>
?

> <Authors>
Zhu, J; Han, L; Diao, Y; Ren, X; Xu, M; Xu, L; Li, S; Li, Q; Dong, D; Huang, J; Liu, X; Zhao, Z; Wang, R; Zhu, L; Xu, Y; Qian, X; Li, H

> <Link to Ligand in BindingDB>
http://www.bindingdb.org/bind/chemsearch/marvin/MolStructure.jsp?monomerid=50071787

> <Link to Ligand-Target Pair in BindingDB>
http://www.bindingdb.org/jsp/dbsearch/PrimarySearch_ki.jsp?energyterm=kJ/mole&tag=r21&monomerid=50071787&enzyme=Dihydroorotate+dehydrogenase&column=ki&startPg=0&Increment=50&submit=Search

> <PubChem CID>
118732496

> <PubChem SID>
103965497

$$$$

  Mrv2115 07222212352D          

 19 20  0  0  0  0            999 V2000
    0.0000   -1.6500    0.0000 C   0  0  0  0  0  0  0  0  0  0  0  0
    0.7145   -1.2375    0.0000 N   0  0  0  0  0  0  0  0  0  0  0  0
    1.4289   -1.6500    0.0000 C   0  0  0  0  0  0  0  0  0  0  0  0
    1.4289   -2.4750    0.0000 C   0  0  0  0  0  0  0  0  0  0  0  0
    2.0964   -2.9599    0.0000 C   0  0  0  0  0  0  0  0  0  0  0  0
    2.8810   -2.7050    0.0000 C   0  0  0  0  0  0  0  0  0  0  0  0
    3.4941   -3.2570    0.0000 O   0  0  0  0  0  0  0  0  0  0  0  0
    3.0525   -1.8980    0.0000 O   0  0  0  0  0  0  0  0  0  0  0  0
    1.8414   -3.7445    0.0000 C   0  0  0  0  0  0  0  0  0  0  0  0
    2.3264   -4.4120    0.0000 O   0  0  0  0  0  0  0  0  0  0  0  0
    1.0164   -3.7445    0.0000 N   0  0  0  0  0  0  0  0  0  0  0  0
    0.7615   -2.9599    0.0000 N   0  0  0  0  0  0  0  0  0  0  0  0
   -0.0231   -2.7050    0.0000 C   0  0  0  0  0  0  0  0  0  0  0  0
    0.7145   -0.4125    0.0000 C   0  0  0  0  0  0  0  0  0  0  0  0
    0.0000    0.0000    0.0000 C   0  0  0  0  0  0  0  0  0  0  0  0
    0.0000    0.8250    0.0000 C   0  0  0  0  0  0  0  0  0  0  0  0
    0.7145    1.2375    0.0000 C   0  0  0  0  0  0  0  0  0  0  0  0
    1.4289    0.8250    0.0000 C   0  0  0  0  0  0  0  0  0  0  0  0
    1.4289    0.0000    0.0000 C   0  0  0  0  0  0  0  0  0  0  0  0
  1  2  1  0  0  0  0
  2  3  1  0  0  0  0
  3  4  1  0  0  0  0
  4  5  4  0  0  0  0
  5  6  1  0  0  0  0
  6  7  2  0  0  0  0
  6  8  1  0  0  0  0
  5  9  4  0  0  0  0
  9 10  1  0  0  0  0
  9 11  4  0  0  0  0
 11 12  4  0  0  0  0
  4 12  4  0  0  0  0
 12 13  1  0  0  0  0
  2 14  1  0  0  0  0
 14 15  4  0  0  0  0
 15 16  4  0  0  0  0
 16 17  4  0  0  0  0
 17 18  4  0  0  0  0
 18 19  4  0  0  0  0
 14 19  4  0  0  0  0
M  END
> <IC50(uM)>
250.0

> <Outcome>
0.0

> <BindingDB ID>
51241003

> <BindingDB MonomerID>
50507738

> <BindingDB Ligand Name>
CHEMBL4451149

> <Curation/DataSource>
ChEMBL

> <Article DOI>
10.1016/j.ejmech.2018.11.044

> <PMID>
30529545

> <Patent Number>
?

> <Authors>
Pippione, AC; Sainas, S; Goyal, P; Fritzson, I; Cassiano, GC; Giraudo, A; Giorgis, M; Tavella, TA; Bagnati, R; Rolando, B; Caing-Carlsson, R; Costa, FTM; Andrade, CH; Al-Karadaghi, S; Boschi, D; Friemann, R; Lolli, ML

> <Link to Ligand in BindingDB>
http://www.bindingdb.org/bind/chemsearch/marvin/MolStructure.jsp?monomerid=50507738

> <Link to Ligand-Target Pair in BindingDB>
http://www.bindingdb.org/jsp/dbsearch/PrimarySearch_ki.jsp?energyterm=kJ/mole&tag=r21&monomerid=50507738&enzyme=Dihydroorotate+dehydrogenase&column=ki&startPg=0&Increment=50&submit=Search

> <PubChem CID>
155522278

> <PubChem SID>
440716323

$$$$

  Mrv2115 07222212352D          

 37 40  0  0  0  0            999 V2000
   -3.1034    2.1599    0.0000 C   0  0  0  0  0  0  0  0  0  0  0  0
   -2.6909    1.4455    0.0000 C   0  0  0  0  0  0  0  0  0  0  0  0
   -3.1034    0.7310    0.0000 O   0  0  0  0  0  0  0  0  0  0  0  0
   -2.6909    0.0165    0.0000 C   0  0  0  0  0  0  0  0  0  0  0  0
   -1.8659    0.0165    0.0000 C   0  0  0  0  0  0  0  0  0  0  0  0
   -1.4534   -0.6979    0.0000 C   0  0  0  0  0  0  0  0  0  0  0  0
   -0.6284   -0.6979    0.0000 N   0  0  0  0  0  0  0  0  0  0  0  0
   -0.1435   -1.3654    0.0000 N   0  0  0  0  0  0  0  0  0  0  0  0
    0.6411   -1.1104    0.0000 C   0  0  0  0  0  0  0  0  0  0  0  0
    0.6411   -0.2854    0.0000 N   0  0  0  0  0  0  0  0  0  0  0  0
   -0.1435   -0.0305    0.0000 C   0  0  0  0  0  0  0  0  0  0  0  0
   -0.3984    0.7541    0.0000 O   0  0  0  0  0  0  0  0  0  0  0  0
    1.3556    0.1271    0.0000 C   0  0  0  0  0  0  0  0  0  0  0  0
    2.0701   -0.2854    0.0000 C   0  0  0  0  0  0  0  0  0  0  0  0
    2.0701   -1.1104    0.0000 C   0  0  0  0  0  0  0  0  0  0  0  0
    1.3556   -1.5229    0.0000 C   0  0  0  0  0  0  0  0  0  0  0  0
   -1.8659   -1.4124    0.0000 C   0  0  0  0  0  0  0  0  0  0  0  0
   -1.4534   -2.1269    0.0000 F   0  0  0  0  0  0  0  0  0  0  0  0
   -2.6909   -1.4124    0.0000 C   0  0  0  0  0  0  0  0  0  0  0  0
   -3.1034   -0.6979    0.0000 C   0  0  0  0  0  0  0  0  0  0  0  0
   -3.9284   -0.6979    0.0000 C   0  0  0  0  0  0  0  0  0  0  0  0
   -4.3409   -1.4124    0.0000 O   0  0  0  0  0  0  0  0  0  0  0  0
   -4.3409    0.0165    0.0000 N   0  0  0  0  0  0  0  0  0  0  0  0
   -5.1659    0.0165    0.0000 C   0  0  0  0  0  0  0  0  0  0  0  0
   -5.5784   -0.6979    0.0000 C   0  0  0  0  0  0  0  0  0  0  0  0
   -6.4034   -0.6979    0.0000 C   0  0  0  0  0  0  0  0  0  0  0  0
   -6.8159    0.0165    0.0000 C   0  0  0  0  0  0  0  0  0  0  0  0
   -6.4034    0.7310    0.0000 C   0  0  0  0  0  0  0  0  0  0  0  0
   -6.8159    1.4455    0.0000 S   0  0  0  0  0  0  0  0  0  0  0  0
   -7.2284    2.1599    0.0000 N   0  0  0  0  0  0  0  0  0  0  0  0
   -6.1015    1.8580    0.0000 O   0  0  0  0  0  0  0  0  0  0  0  0
   -7.5304    1.0330    0.0000 O   0  0  0  0  0  0  0  0  0  0  0  0
   -5.5784    0.7310    0.0000 C   0  0  0  0  0  0  0  0  0  0  0  0
   -1.8659    1.4455    0.0000 C   0  0  0  0  0  0  0  0  0  0  0  0
   -1.8659    0.6205    0.0000 F   0  0  0  0  0  0  0  0  0  0  0  0
   -1.8659    2.2705    0.0000 F   0  0  0  0  0  0  0  0  0  0  0  0
   -1.0409    1.4455    0.0000 F   0  0  0  0  0  0  0  0  0  0  0  0
  1  2  1  0  0  0  0
  2  3  1  0  0  0  0
  3  4  1  0  0  0  0
  4  5  4  0  0  0  0
  5  6  4  0  0  0  0
  6  7  1  0  0  0  0
  7  8  4  0  0  0  0
  8  9  4  0  0  0  0
  9 10  4  0  0  0  0
 10 11  4  0  0  0  0
  7 11  4  0  0  0  0
 11 12  2  0  0  0  0
 10 13  1  0  0  0  0
 13 14  1  0  0  0  0
 14 15  1  0  0  0  0
 15 16  1  0  0  0  0
  9 16  1  0  0  0  0
  6 17  4  0  0  0  0
 17 18  1  0  0  0  0
 17 19  4  0  0  0  0
 19 20  4  0  0  0  0
  4 20  4  0  0  0  0
 20 21  1  0  0  0  0
 21 22  2  0  0  0  0
 21 23  1  0  0  0  0
 23 24  1  0  0  0  0
 24 25  4  0  0  0  0
 25 26  4  0  0  0  0
 26 27  4  0  0  0  0
 27 28  4  0  0  0  0
 28 29  1  0  0  0  0
 29 30  1  0  0  0  0
 29 31  2  0  0  0  0
 29 32  2  0  0  0  0
 28 33  4  0  0  0  0
 24 33  4  0  0  0  0
  2 34  1  0  0  0  0
 34 35  1  0  0  0  0
 34 36  1  0  0  0  0
 34 37  1  0  0  0  0
M  END
> <IC50(uM)>
30.0

> <Outcome>
0.0

> <BindingDB ID>
1020485

> <BindingDB MonomerID>
490433

> <BindingDB Ligand Name>
5-fluoro-4-(3-oxo-5,6,7,8-tetrahydro[1,2,4]triazolo[4,3-a]pyridin-2(3H)-yl)-N-(3-sulfamoylphenyl)-2-{[(2S)-1,1,1-trifluoropropan-2-yl]oxy}benzamide::US10968216, Example 101

> <Curation/DataSource>
US Patent

> <Article DOI>
?

> <PMID>
?

> <Patent Number>
US10968216

> <Authors>
Gradl, SN; Nguyen, D; Eis, K; Gunther, J; Stellfeld, T; Janzer, A; Christian, S; Mueller, T; Sheikh, SE; Zhou, HJ; Zhao, C; Sykes, DB; Ferrara, SJ; Liu, K; Herbert, SA; Merz, C; Niehues, M; Nising, CF; Schafer, M; Zimmermann, K; Knablein, J; Thede, K; Faupel, T

> <Link to Ligand in BindingDB>
http://www.bindingdb.org/bind/chemsearch/marvin/MolStructure.jsp?monomerid=490433

> <Link to Ligand-Target Pair in BindingDB>
http://www.bindingdb.org/jsp/dbsearch/PrimarySearch_ki.jsp?energyterm=kJ/mole&tag=r21&monomerid=490433&enzyme=Dihydroorotate+dehydrogenase&column=ki&startPg=0&Increment=50&submit=Search

> <PubChem CID>
142335898

> <PubChem SID>
447117160

$$$$

  Mrv2115 07222212352D          

 31 32  0  0  0  0            999 V2000
   -2.1434   -1.2375    0.0000 C   0  0  0  0  0  0  0  0  0  0  0  0
   -1.4289   -1.6500    0.0000 C   0  0  0  0  0  0  0  0  0  0  0  0
   -0.7145   -1.2375    0.0000 C   0  0  0  0  0  0  0  0  0  0  0  0
    0.0000   -1.6500    0.0000 C   0  0  0  0  0  0  0  0  0  0  0  0
    0.0000   -2.4750    0.0000 C   0  0  0  0  0  0  0  0  0  0  0  0
    0.7145   -1.2375    0.0000 O   0  0  0  0  0  0  0  0  0  0  0  0
    0.7145   -0.4125    0.0000 C   0  0  0  0  0  0  0  0  0  0  0  0
    0.0000    0.0000    0.0000 C   0  0  0  0  0  0  0  0  0  0  0  0
    0.0000    0.8250    0.0000 C   0  0  0  0  0  0  0  0  0  0  0  0
   -0.7145    1.2375    0.0000 N   0  0  0  0  0  0  0  0  0  0  0  0
   -1.4681    0.9019    0.0000 N   0  0  0  0  0  0  0  0  0  0  0  0
   -2.0202    1.5150    0.0000 C   0  0  0  0  0  0  0  0  0  0  0  0
   -2.8407    1.4288    0.0000 C   0  0  0  0  0  0  0  0  0  0  0  0
   -3.3256    2.0962    0.0000 C   0  0  0  0  0  0  0  0  0  0  0  0
   -3.1762    0.6751    0.0000 C   0  0  0  0  0  0  0  0  0  0  0  0
   -1.6077    2.2295    0.0000 N   0  0  0  0  0  0  0  0  0  0  0  0
   -1.9432    2.9832    0.0000 C   0  0  0  0  0  0  0  0  0  0  0  0
   -0.8007    2.0580    0.0000 C   0  0  0  0  0  0  0  0  0  0  0  0
   -0.1876    2.6100    0.0000 O   0  0  0  0  0  0  0  0  0  0  0  0
    0.7145    1.2375    0.0000 C   0  0  0  0  0  0  0  0  0  0  0  0
    0.7145    2.0625    0.0000 F   0  0  0  0  0  0  0  0  0  0  0  0
    1.4289    0.8250    0.0000 C   0  0  0  0  0  0  0  0  0  0  0  0
    1.4289    0.0000    0.0000 C   0  0  0  0  0  0  0  0  0  0  0  0
    2.1434   -0.4125    0.0000 C   0  0  0  0  0  0  0  0  0  0  0  0
    2.8579    0.0000    0.0000 O   0  0  0  0  0  0  0  0  0  0  0  0
    2.1434   -1.2375    0.0000 N   0  0  0  0  0  0  0  0  0  0  0  0
    2.8579   -1.6500    0.0000 C   0  0  0  0  0  0  0  0  0  0  0  0
    2.8579   -2.4750    0.0000 C   0  0  0  0  0  0  0  0  0  0  0  0
    3.5724   -2.8875    0.0000 C   0  0  0  0  0  0  0  0  0  0  0  0
    3.5724   -1.2375    0.0000 C   0  0  0  0  0  0  0  0  0  0  0  0
    3.5724   -0.4125    0.0000 O   0  0  0  0  0  0  0  0  0  0  0  0
  1  2  1  0  0  0  0
  2  3  1  0  0  0  0
  3  4  1  0  0  0  0
  4  5  1  0  0  0  0
  4  6  1  0  0  0  0
  6  7  1  0  0  0  0
  7  8  4  0  0  0  0
  8  9  4  0  0  0  0
  9 10  1  0  0  0  0
 10 11  4  0  0  0  0
 11 12  4  0  0  0  0
 12 13  1  0  0  0  0
 13 14  1  0  0  0  0
 13 15  1  0  0  0  0
 12 16  4  0  0  0  0
 16 17  1  0  0  0  0
 16 18  4  0  0  0  0
 10 18  4  0  0  0  0
 18 19  2  0  0  0  0
  9 20  4  0  0  0  0
 20 21  1  0  0  0  0
 20 22  4  0  0  0  0
 22 23  4  0  0  0  0
  7 23  4  0  0  0  0
 23 24  1  0  0  0  0
 24 25  2  0  0  0  0
 24 26  1  0  0  0  0
 26 27  1  0  0  0  0
 27 28  1  0  0  0  0
 28 29  1  0  0  0  0
 27 30  1  0  0  0  0
 30 31  1  0  0  0  0
M  END
> <IC50(uM)>
7.2

> <Outcome>
0.0

> <BindingDB ID>
1098696; 972542

> <BindingDB MonomerID>
470416

> <BindingDB Ligand Name>
5-fluoro-N-[(2R)-1-hydroxybutan-2-yl]-4-[4-methyl-5-oxo-3-(propan-2-yl)-4,5-dihydro-1H-1,2,4-triazol-1-yl]-2-[(2S)-pentan-2-yloxy]benzamide::US10815215, Example 75::US11130745, Example 75; 5-fluoro-N-[(2R)-1-hydroxybutan-2-yl]-4-[4-methyl-5-oxo-3-(propan-2-yl)-4,5-dihydro-1H-1,2,4-triazol-1-yl]-2-[(2S)-pentan-2-yloxy]benzamide::US10815215, Example 75

> <Curation/DataSource>
US Patent

> <Article DOI>
?

> <PMID>
?

> <Patent Number>
US11130745; US10815215

> <Authors>
Gradl, SN; Nguyen, D; Eis, K; Gunther, J; Stellfeld, T; Janzer, A; Christian, S; Muller, T; Sheikh, SE; Sykes, DB; Ferrara, SJ; Krober, M; Merz, C; Niehues, M; Schafer, M; Zimmermann, K; Nising, CF; Gradl, SN; Nguyen, D; Eis, K; Gunther, J; Stellfeld, T; Janzer, A; Christian, S; Muller, T; Sheikh, SE; Zhou, HJ; Zhao, C; Sykes, DB; Ferrara, SJ; Liu, K; Krober, M; Merz, C; Niehues, M; Schafer, M; Zimmermann, K; Nising, CF

> <Link to Ligand in BindingDB>
http://www.bindingdb.org/bind/chemsearch/marvin/MolStructure.jsp?monomerid=470416

> <Link to Ligand-Target Pair in BindingDB>
http://www.bindingdb.org/jsp/dbsearch/PrimarySearch_ki.jsp?energyterm=kJ/mole&tag=r21&monomerid=470416&enzyme=Dihydroorotate+dehydrogenase&column=ki&startPg=0&Increment=50&submit=Search

> <PubChem CID>
134469824

> <PubChem SID>
441609593

$$$$

  Mrv2115 07222212352D          

 36 39  0  0  0  0            999 V2000
   -3.2083    2.1568    0.0000 C   0  0  0  0  0  0  0  0  0  0  0  0
   -2.7958    1.4423    0.0000 C   0  0  0  0  0  0  0  0  0  0  0  0
   -3.2083    0.7279    0.0000 O   0  0  0  0  0  0  0  0  0  0  0  0
   -2.7958    0.0134    0.0000 C   0  0  0  0  0  0  0  0  0  0  0  0
   -1.9708    0.0134    0.0000 C   0  0  0  0  0  0  0  0  0  0  0  0
   -1.5583   -0.7011    0.0000 C   0  0  0  0  0  0  0  0  0  0  0  0
   -0.7333   -0.7011    0.0000 N   0  0  0  0  0  0  0  0  0  0  0  0
   -0.2483   -1.3685    0.0000 N   0  0  0  0  0  0  0  0  0  0  0  0
    0.5363   -1.1136    0.0000 C   0  0  0  0  0  0  0  0  0  0  0  0
    0.5363   -0.2886    0.0000 N   0  0  0  0  0  0  0  0  0  0  0  0
   -0.2483   -0.0336    0.0000 C   0  0  0  0  0  0  0  0  0  0  0  0
   -0.5033    0.7510    0.0000 O   0  0  0  0  0  0  0  0  0  0  0  0
    1.1813    0.2258    0.0000 C   0  0  0  0  0  0  0  0  0  0  0  0
    1.9856    0.0422    0.0000 C   0  0  0  0  0  0  0  0  0  0  0  0
    2.3436   -0.7011    0.0000 C   0  0  0  0  0  0  0  0  0  0  0  0
    1.9856   -1.4444    0.0000 O   0  0  0  0  0  0  0  0  0  0  0  0
    1.1813   -1.6280    0.0000 C   0  0  0  0  0  0  0  0  0  0  0  0
   -1.9708   -1.4156    0.0000 C   0  0  0  0  0  0  0  0  0  0  0  0
   -1.5583   -2.1300    0.0000 F   0  0  0  0  0  0  0  0  0  0  0  0
   -2.7958   -1.4156    0.0000 C   0  0  0  0  0  0  0  0  0  0  0  0
   -3.2083   -0.7011    0.0000 C   0  0  0  0  0  0  0  0  0  0  0  0
   -4.0333   -0.7011    0.0000 C   0  0  0  0  0  0  0  0  0  0  0  0
   -4.4458    0.0134    0.0000 O   0  0  0  0  0  0  0  0  0  0  0  0
   -4.4458   -1.4156    0.0000 N   0  0  0  0  0  0  0  0  0  0  0  0
   -5.2708   -1.4156    0.0000 C   0  0  0  0  0  0  0  0  0  0  0  0
   -5.6833   -2.1300    0.0000 C   0  0  0  0  0  0  0  0  0  0  0  0
   -5.2708   -2.8445    0.0000 Cl  0  0  0  0  0  0  0  0  0  0  0  0
   -6.5083   -2.1300    0.0000 C   0  0  0  0  0  0  0  0  0  0  0  0
   -6.9208   -1.4156    0.0000 C   0  0  0  0  0  0  0  0  0  0  0  0
   -6.5083   -0.7011    0.0000 C   0  0  0  0  0  0  0  0  0  0  0  0
   -5.6833   -0.7011    0.0000 C   0  0  0  0  0  0  0  0  0  0  0  0
   -5.2708    0.0134    0.0000 Cl  0  0  0  0  0  0  0  0  0  0  0  0
   -1.9708    1.4423    0.0000 C   0  0  0  0  0  0  0  0  0  0  0  0
   -1.9708    0.6173    0.0000 F   0  0  0  0  0  0  0  0  0  0  0  0
   -1.9708    2.2673    0.0000 F   0  0  0  0  0  0  0  0  0  0  0  0
   -1.1458    1.4423    0.0000 F   0  0  0  0  0  0  0  0  0  0  0  0
  1  2  1  0  0  0  0
  2  3  1  0  0  0  0
  3  4  1  0  0  0  0
  4  5  4  0  0  0  0
  5  6  4  0  0  0  0
  6  7  1  0  0  0  0
  7  8  4  0  0  0  0
  8  9  4  0  0  0  0
  9 10  4  0  0  0  0
 10 11  4  0  0  0  0
  7 11  4  0  0  0  0
 11 12  2  0  0  0  0
 10 13  1  0  0  0  0
 13 14  1  0  0  0  0
 14 15  1  0  0  0  0
 15 16  1  0  0  0  0
 16 17  1  0  0  0  0
  9 17  1  0  0  0  0
  6 18  4  0  0  0  0
 18 19  1  0  0  0  0
 18 20  4  0  0  0  0
 20 21  4  0  0  0  0
  4 21  4  0  0  0  0
 21 22  1  0  0  0  0
 22 23  2  0  0  0  0
 22 24  1  0  0  0  0
 24 25  1  0  0  0  0
 25 26  4  0  0  0  0
 26 27  1  0  0  0  0
 26 28  4  0  0  0  0
 28 29  4  0  0  0  0
 29 30  4  0  0  0  0
 30 31  4  0  0  0  0
 25 31  4  0  0  0  0
 31 32  1  0  0  0  0
  2 33  1  0  0  0  0
 33 34  1  0  0  0  0
 33 35  1  0  0  0  0
 33 36  1  0  0  0  0
M  END
> <IC50(uM)>
0.003

> <Outcome>
1.0

> <BindingDB ID>
1020634

> <BindingDB MonomerID>
490563

> <BindingDB Ligand Name>
N-(2,6-dichlorophenyl)-5-fluoro-4-(3-oxo-6,7-dihydro-3H,5H-[1,2,4]triazolo[3,4-c][1,4]oxazepin-2(9H)-yl)-2-{[(2S)-1,1,1-trifluoropropan-2-yl]oxy}benzamide::US10968216, Example 231

> <Curation/DataSource>
US Patent

> <Article DOI>
?

> <PMID>
?

> <Patent Number>
US10968216

> <Authors>
Gradl, SN; Nguyen, D; Eis, K; Gunther, J; Stellfeld, T; Janzer, A; Christian, S; Mueller, T; Sheikh, SE; Zhou, HJ; Zhao, C; Sykes, DB; Ferrara, SJ; Liu, K; Herbert, SA; Merz, C; Niehues, M; Nising, CF; Schafer, M; Zimmermann, K; Knablein, J; Thede, K; Faupel, T

> <Link to Ligand in BindingDB>
http://www.bindingdb.org/bind/chemsearch/marvin/MolStructure.jsp?monomerid=490563

> <Link to Ligand-Target Pair in BindingDB>
http://www.bindingdb.org/jsp/dbsearch/PrimarySearch_ki.jsp?energyterm=kJ/mole&tag=r21&monomerid=490563&enzyme=Dihydroorotate+dehydrogenase&column=ki&startPg=0&Increment=50&submit=Search

> <PubChem CID>
134474167

> <PubChem SID>
447117289

$$$$

  Mrv2115 07222212352D          

 23 26  0  0  0  0            999 V2000
   -1.4087    0.0165    0.0000 C   0  0  0  0  0  0  0  0  0  0  0  0
   -0.5837    0.0165    0.0000 C   0  0  0  0  0  0  0  0  0  0  0  0
   -0.1712   -0.6979    0.0000 C   0  0  0  0  0  0  0  0  0  0  0  0
    0.6538   -0.6979    0.0000 C   0  0  0  0  0  0  0  0  0  0  0  0
    1.1387   -0.0305    0.0000 N   0  0  0  0  0  0  0  0  0  0  0  0
    1.9233   -0.2854    0.0000 C   0  0  0  0  0  0  0  0  0  0  0  0
    2.6378    0.1271    0.0000 C   0  0  0  0  0  0  0  0  0  0  0  0
    3.3523   -0.2854    0.0000 C   0  0  0  0  0  0  0  0  0  0  0  0
    3.3523   -1.1104    0.0000 C   0  0  0  0  0  0  0  0  0  0  0  0
    2.6378   -1.5229    0.0000 C   0  0  0  0  0  0  0  0  0  0  0  0
    1.9233   -1.1104    0.0000 C   0  0  0  0  0  0  0  0  0  0  0  0
    1.1387   -1.3654    0.0000 N   0  0  0  0  0  0  0  0  0  0  0  0
    0.8838   -2.1500    0.0000 C   0  0  0  0  0  0  0  0  0  0  0  0
    1.3687   -2.8174    0.0000 C   0  0  0  0  0  0  0  0  0  0  0  0
    0.8838   -3.4849    0.0000 C   0  0  0  0  0  0  0  0  0  0  0  0
    0.0992   -3.2299    0.0000 C   0  0  0  0  0  0  0  0  0  0  0  0
   -0.5683   -3.7149    0.0000 C   0  0  0  0  0  0  0  0  0  0  0  0
   -1.3220   -3.3793    0.0000 O   0  0  0  0  0  0  0  0  0  0  0  0
   -0.4820   -4.5353    0.0000 N   0  0  0  0  0  0  0  0  0  0  0  0
   -1.1495   -5.0203    0.0000 C   0  0  0  0  0  0  0  0  0  0  0  0
   -1.4850   -5.7739    0.0000 C   0  0  0  0  0  0  0  0  0  0  0  0
   -1.9700   -5.1065    0.0000 C   0  0  0  0  0  0  0  0  0  0  0  0
    0.0992   -2.4049    0.0000 S   0  0  0  0  0  0  0  0  0  0  0  0
  1  2  1  0  0  0  0
  2  3  1  0  0  0  0
  3  4  1  0  0  0  0
  4  5  4  0  0  0  0
  5  6  4  0  0  0  0
  6  7  4  0  0  0  0
  7  8  4  0  0  0  0
  8  9  4  0  0  0  0
  9 10  4  0  0  0  0
 10 11  4  0  0  0  0
  6 11  4  0  0  0  0
 11 12  4  0  0  0  0
  4 12  4  0  0  0  0
 12 13  1  0  0  0  0
 13 14  4  0  0  0  0
 14 15  4  0  0  0  0
 15 16  4  0  0  0  0
 16 17  1  0  0  0  0
 17 18  2  0  0  0  0
 17 19  1  0  0  0  0
 19 20  1  0  0  0  0
 20 21  1  0  0  0  0
 21 22  1  0  0  0  0
 20 22  1  0  0  0  0
 16 23  4  0  0  0  0
 13 23  4  0  0  0  0
M  END
> <IC50(uM)>
15.1

> <Outcome>
0.0

> <BindingDB ID>
50924666

> <BindingDB MonomerID>
50379148

> <BindingDB Ligand Name>
CHEMBL2012831::US8703811, 67

> <Curation/DataSource>
ChEMBL

> <Article DOI>
10.1021/ml200143c

> <PMID>
24900364

> <Patent Number>
?

> <Authors>
Skerlj, RT; Bastos, CM; Booker, ML; Kramer, ML; Barker, RH; Celatka, CA; Munoz, B; Sidhu, AB; Cortese, JF; Wittlin, S; Papastogiannidis, P; Angulo-Barturen, I; Jimenez-Diaz, MB; Sybertz, E

> <Link to Ligand in BindingDB>
http://www.bindingdb.org/bind/chemsearch/marvin/MolStructure.jsp?monomerid=50379148

> <Link to Ligand-Target Pair in BindingDB>
http://www.bindingdb.org/jsp/dbsearch/PrimarySearch_ki.jsp?energyterm=kJ/mole&tag=r21&monomerid=50379148&enzyme=Dihydroorotate+dehydrogenase&column=ki&startPg=0&Increment=50&submit=Search

> <PubChem CID>
58284898

> <PubChem SID>
160858231

$$$$

  Mrv2115 07222212352D          

 33 36  0  0  0  0            999 V2000
   -2.0492    1.8319    0.0000 C   0  0  0  0  0  0  0  0  0  0  0  0
   -1.2288    1.7457    0.0000 C   0  0  0  0  0  0  0  0  0  0  0  0
   -0.8932    0.9920    0.0000 N   0  0  0  0  0  0  0  0  0  0  0  0
   -0.0862    0.8205    0.0000 N   0  0  0  0  0  0  0  0  0  0  0  0
    0.0000   -0.0000    0.0000 C   0  0  0  0  0  0  0  0  0  0  0  0
    0.7145   -0.4125    0.0000 C   0  0  0  0  0  0  0  0  0  0  0  0
    1.4289    0.0000    0.0000 C   0  0  0  0  0  0  0  0  0  0  0  0
    2.1434   -0.4125    0.0000 C   0  0  0  0  0  0  0  0  0  0  0  0
    2.8579    0.0000    0.0000 C   0  0  0  0  0  0  0  0  0  0  0  0
    2.8579    0.8250    0.0000 C   0  0  0  0  0  0  0  0  0  0  0  0
    3.5724    1.2375    0.0000 C   0  0  0  0  0  0  0  0  0  0  0  0
    2.1434    1.2375    0.0000 C   0  0  0  0  0  0  0  0  0  0  0  0
    3.5724   -0.4125    0.0000 C   0  0  0  0  0  0  0  0  0  0  0  0
    3.5724   -1.2375    0.0000 N   0  0  0  0  0  0  0  0  0  0  0  0
    4.2868   -1.6500    0.0000 C   0  0  0  0  0  0  0  0  0  0  0  0
    5.0013   -1.2375    0.0000 C   0  0  0  0  0  0  0  0  0  0  0  0
    5.7158   -1.6500    0.0000 C   0  0  0  0  0  0  0  0  0  0  0  0
    5.7158   -2.4750    0.0000 C   0  0  0  0  0  0  0  0  0  0  0  0
    5.0013   -2.8875    0.0000 C   0  0  0  0  0  0  0  0  0  0  0  0
    4.2868   -2.4750    0.0000 C   0  0  0  0  0  0  0  0  0  0  0  0
    3.5724   -2.8875    0.0000 C   0  0  0  0  0  0  0  0  0  0  0  0
    2.8579   -1.6500    0.0000 C   0  0  0  0  0  0  0  0  0  0  0  0
    2.8579   -2.4750    0.0000 O   0  0  0  0  0  0  0  0  0  0  0  0
    2.1434   -1.2375    0.0000 C   0  0  0  0  0  0  0  0  0  0  0  0
    1.4289   -1.6500    0.0000 C   0  0  0  0  0  0  0  0  0  0  0  0
    0.7145   -1.2375    0.0000 C   0  0  0  0  0  0  0  0  0  0  0  0
    0.0000   -1.6500    0.0000 F   0  0  0  0  0  0  0  0  0  0  0  0
   -0.7537   -0.3356    0.0000 N   0  0  0  0  0  0  0  0  0  0  0  0
   -1.3057    0.2775    0.0000 C   0  0  0  0  0  0  0  0  0  0  0  0
   -2.1262    0.1913    0.0000 C   0  0  0  0  0  0  0  0  0  0  0  0
   -2.9467    0.1051    0.0000 C   0  0  0  0  0  0  0  0  0  0  0  0
   -2.2124    1.0118    0.0000 C   0  0  0  0  0  0  0  0  0  0  0  0
   -2.0400   -0.6292    0.0000 O   0  0  0  0  0  0  0  0  0  0  0  0
  1  2  1  0  0  0  0
  2  3  1  0  0  0  0
  3  4  4  0  0  0  0
  4  5  4  0  0  0  0
  5  6  1  0  0  0  0
  6  7  4  0  0  0  0
  7  8  4  0  0  0  0
  8  9  4  0  0  0  0
  9 10  1  0  0  0  0
 10 11  1  0  0  0  0
 10 12  1  0  0  0  0
  9 13  4  0  0  0  0
 13 14  4  0  0  0  0
 14 15  1  0  0  0  0
 15 16  4  0  0  0  0
 16 17  4  0  0  0  0
 17 18  4  0  0  0  0
 18 19  4  0  0  0  0
 19 20  4  0  0  0  0
 15 20  4  0  0  0  0
 20 21  1  0  0  0  0
 14 22  4  0  0  0  0
 22 23  2  0  0  0  0
 22 24  4  0  0  0  0
  8 24  4  0  0  0  0
 24 25  4  0  0  0  0
 25 26  4  0  0  0  0
  6 26  4  0  0  0  0
 26 27  1  0  0  0  0
  5 28  4  0  0  0  0
 28 29  4  0  0  0  0
  3 29  4  0  0  0  0
 29 30  1  0  0  0  0
 30 31  1  0  0  0  0
 30 32  1  0  0  0  0
 30 33  1  0  0  0  0
M  END
> <IC50(uM)>
0.027

> <Outcome>
1.0

> <BindingDB ID>
1121382

> <BindingDB MonomerID>
530448

> <BindingDB Ligand Name>
6-(1-Ethyl-5-(2-hydroxypropan-2-yl)-1H-1,2,4-triazol-3-yl)-7-fluoro-4-isopropyl-2- (o-tolyl)isoquinolin-1(2H)-one.::WO2022070068, Example 20

> <Curation/DataSource>
Curated from the literature by BindingDB

> <Article DOI>
?

> <PMID>
WO2022070068

> <Patent Number>
?

> <Authors>
Lindsey, D; Scott, K; Zhuming, Z

> <Link to Ligand in BindingDB>
http://www.bindingdb.org/bind/chemsearch/marvin/MolStructure.jsp?monomerid=530448

> <Link to Ligand-Target Pair in BindingDB>
http://www.bindingdb.org/jsp/dbsearch/PrimarySearch_ki.jsp?energyterm=kJ/mole&tag=r21&monomerid=530448&enzyme=Dihydroorotate+dehydrogenase&column=ki&startPg=0&Increment=50&submit=Search

> <PubChem CID>
?

> <PubChem SID>
?

$$$$

  Mrv2115 07222212352D          

 33 36  0  0  0  0            999 V2000
    0.1190   -0.9780    0.0000 C   0  0  0  0  0  0  0  0  0  0  0  0
    0.1190   -1.8030    0.0000 O   0  0  0  0  0  0  0  0  0  0  0  0
   -0.5955   -2.2155    0.0000 C   0  0  0  0  0  0  0  0  0  0  0  0
   -1.3099   -1.8030    0.0000 O   0  0  0  0  0  0  0  0  0  0  0  0
   -0.5955   -3.0405    0.0000 C   0  0  0  0  0  0  0  0  0  0  0  0
    0.0720   -3.5254    0.0000 C   0  0  0  0  0  0  0  0  0  0  0  0
    0.8566   -3.2704    0.0000 C   0  0  0  0  0  0  0  0  0  0  0  0
    1.0281   -2.4635    0.0000 C   0  0  0  0  0  0  0  0  0  0  0  0
    0.4150   -1.9114    0.0000 Cl  0  0  0  0  0  0  0  0  0  0  0  0
    1.8128   -2.2085    0.0000 C   0  0  0  0  0  0  0  0  0  0  0  0
    2.4259   -2.7606    0.0000 C   0  0  0  0  0  0  0  0  0  0  0  0
    2.2543   -3.5675    0.0000 C   0  0  0  0  0  0  0  0  0  0  0  0
    1.4697   -3.8225    0.0000 C   0  0  0  0  0  0  0  0  0  0  0  0
    1.2982   -4.6294    0.0000 Cl  0  0  0  0  0  0  0  0  0  0  0  0
   -0.1830   -4.3100    0.0000 N   0  0  0  0  0  0  0  0  0  0  0  0
   -1.0080   -4.3100    0.0000 O   0  0  0  0  0  0  0  0  0  0  0  0
   -1.2629   -3.5254    0.0000 C   0  0  0  0  0  0  0  0  0  0  0  0
   -2.0475   -3.2704    0.0000 C   0  0  0  0  0  0  0  0  0  0  0  0
   -2.3025   -2.4858    0.0000 C   0  0  0  0  0  0  0  0  0  0  0  0
   -3.1275   -2.4858    0.0000 N   0  0  0  0  0  0  0  0  0  0  0  0
   -3.3824   -3.2704    0.0000 N   0  0  0  0  0  0  0  0  0  0  0  0
   -4.1670   -3.5254    0.0000 C   0  0  0  0  0  0  0  0  0  0  0  0
   -4.3385   -4.3323    0.0000 C   0  0  0  0  0  0  0  0  0  0  0  0
   -5.1232   -4.5873    0.0000 C   0  0  0  0  0  0  0  0  0  0  0  0
   -5.7363   -4.0353    0.0000 C   0  0  0  0  0  0  0  0  0  0  0  0
   -5.5647   -3.2283    0.0000 C   0  0  0  0  0  0  0  0  0  0  0  0
   -6.1778   -2.6763    0.0000 Cl  0  0  0  0  0  0  0  0  0  0  0  0
   -4.7801   -2.9733    0.0000 C   0  0  0  0  0  0  0  0  0  0  0  0
   -2.7150   -3.7554    0.0000 C   0  0  0  0  0  0  0  0  0  0  0  0
   -2.7150   -4.5804    0.0000 C   0  0  0  0  0  0  0  0  0  0  0  0
   -2.7150   -5.4054    0.0000 F   0  0  0  0  0  0  0  0  0  0  0  0
   -3.5400   -4.5804    0.0000 F   0  0  0  0  0  0  0  0  0  0  0  0
   -1.8900   -4.5804    0.0000 F   0  0  0  0  0  0  0  0  0  0  0  0
  1  2  1  0  0  0  0
  2  3  1  0  0  0  0
  3  4  2  0  0  0  0
  3  5  1  0  0  0  0
  5  6  4  0  0  0  0
  6  7  1  0  0  0  0
  7  8  4  0  0  0  0
  8  9  1  0  0  0  0
  8 10  4  0  0  0  0
 10 11  4  0  0  0  0
 11 12  4  0  0  0  0
 12 13  4  0  0  0  0
  7 13  4  0  0  0  0
 13 14  1  0  0  0  0
  6 15  4  0  0  0  0
 15 16  4  0  0  0  0
 16 17  4  0  0  0  0
  5 17  4  0  0  0  0
 17 18  1  0  0  0  0
 18 19  4  0  0  0  0
 19 20  4  0  0  0  0
 20 21  4  0  0  0  0
 21 22  1  0  0  0  0
 22 23  4  0  0  0  0
 23 24  4  0  0  0  0
 24 25  4  0  0  0  0
 25 26  4  0  0  0  0
 26 27  1  0  0  0  0
 26 28  4  0  0  0  0
 22 28  4  0  0  0  0
 21 29  4  0  0  0  0
 18 29  4  0  0  0  0
 29 30  1  0  0  0  0
 30 31  1  0  0  0  0
 30 32  1  0  0  0  0
 30 33  1  0  0  0  0
M  END
> <IC50(uM)>
0.103

> <Outcome>
1.0

> <BindingDB ID>
51292544

> <BindingDB MonomerID>
50526854

> <BindingDB Ligand Name>
CHEMBL4562509

> <Curation/DataSource>
ChEMBL

> <Article DOI>
10.1016/j.ejmech.2019.111681

> <PMID>
31557612

> <Patent Number>
?

> <Authors>
Boschi, D; Pippione, AC; Sainas, S; Lolli, ML

> <Link to Ligand in BindingDB>
http://www.bindingdb.org/bind/chemsearch/marvin/MolStructure.jsp?monomerid=50526854

> <Link to Ligand-Target Pair in BindingDB>
http://www.bindingdb.org/jsp/dbsearch/PrimarySearch_ki.jsp?energyterm=kJ/mole&tag=r21&monomerid=50526854&enzyme=Dihydroorotate+dehydrogenase&column=ki&startPg=0&Increment=50&submit=Search

> <PubChem CID>
53362039

> <PubChem SID>
440735436

$$$$

  Mrv2115 07222212352D          

 38 42  0  0  0  0            999 V2000
    6.7071    2.6011    0.0000 C   0  0  0  0  0  0  0  0  0  0  0  0
    6.3454    1.8596    0.0000 C   0  0  0  0  0  0  0  0  0  0  0  0
    5.5225    1.8020    0.0000 C   0  0  0  0  0  0  0  0  0  0  0  0
    5.0853    1.1024    0.0000 N   0  0  0  0  0  0  0  0  0  0  0  0
    4.2848    1.3020    0.0000 N   0  0  0  0  0  0  0  0  0  0  0  0
    3.6528    0.7717    0.0000 C   0  0  0  0  0  0  0  0  0  0  0  0
    3.7960   -0.0408    0.0000 C   0  0  0  0  0  0  0  0  0  0  0  0
    3.1641   -0.5711    0.0000 C   0  0  0  0  0  0  0  0  0  0  0  0
    3.3073   -1.3836    0.0000 O   0  0  0  0  0  0  0  0  0  0  0  0
    4.0826   -1.6657    0.0000 C   0  0  0  0  0  0  0  0  0  0  0  0
    4.7146   -1.1354    0.0000 C   0  0  0  0  0  0  0  0  0  0  0  0
    4.2258   -2.4782    0.0000 C   0  0  0  0  0  0  0  0  0  0  0  0
    5.0011   -2.7604    0.0000 C   0  0  0  0  0  0  0  0  0  0  0  0
    5.1443   -3.5728    0.0000 C   0  0  0  0  0  0  0  0  0  0  0  0
    4.5123   -4.1031    0.0000 C   0  0  0  0  0  0  0  0  0  0  0  0
    3.7371   -3.8210    0.0000 C   0  0  0  0  0  0  0  0  0  0  0  0
    3.5938   -3.0085    0.0000 C   0  0  0  0  0  0  0  0  0  0  0  0
    2.3888   -0.2889    0.0000 C   0  0  0  0  0  0  0  0  0  0  0  0
    1.7568   -0.8192    0.0000 C   0  0  0  0  0  0  0  0  0  0  0  0
    1.9001   -1.6317    0.0000 O   0  0  0  0  0  0  0  0  0  0  0  0
    0.9816   -0.5371    0.0000 N   0  0  0  0  0  0  0  0  0  0  0  0
    0.3496   -1.0674    0.0000 C   0  0  0  0  0  0  0  0  0  0  0  0
   -0.2824   -0.5371    0.0000 C   0  0  0  0  0  0  0  0  0  0  0  0
   -1.0576   -0.8192    0.0000 C   0  0  0  0  0  0  0  0  0  0  0  0
   -1.6896   -0.2889    0.0000 C   0  0  0  0  0  0  0  0  0  0  0  0
   -1.5464    0.5235    0.0000 C   0  0  0  0  0  0  0  0  0  0  0  0
   -2.1784    1.0538    0.0000 F   0  0  0  0  0  0  0  0  0  0  0  0
   -0.7711    0.8057    0.0000 C   0  0  0  0  0  0  0  0  0  0  0  0
   -0.1391    0.2754    0.0000 C   0  0  0  0  0  0  0  0  0  0  0  0
    0.7621   -1.7818    0.0000 C   0  0  0  0  0  0  0  0  0  0  0  0
   -0.0629   -1.7818    0.0000 C   0  0  0  0  0  0  0  0  0  0  0  0
    2.2456    0.5235    0.0000 C   0  0  0  0  0  0  0  0  0  0  0  0
    2.8775    1.0538    0.0000 C   0  0  0  0  0  0  0  0  0  0  0  0
    2.7343    1.8663    0.0000 F   0  0  0  0  0  0  0  0  0  0  0  0
    4.2272    2.1250    0.0000 C   0  0  0  0  0  0  0  0  0  0  0  0
    3.5276    2.5622    0.0000 O   0  0  0  0  0  0  0  0  0  0  0  0
    4.9922    2.4340    0.0000 N   0  0  0  0  0  0  0  0  0  0  0  0
    5.1917    3.2345    0.0000 C   0  0  0  0  0  0  0  0  0  0  0  0
  1  2  1  0  0  0  0
  2  3  1  0  0  0  0
  3  4  4  0  0  0  0
  4  5  4  0  0  0  0
  5  6  1  0  0  0  0
  6  7  4  0  0  0  0
  7  8  4  0  0  0  0
  8  9  1  0  0  0  0
  9 10  1  0  0  0  0
 10 11  1  0  0  0  0
 10 12  1  0  0  0  0
 12 13  1  0  0  0  0
 13 14  1  0  0  0  0
 14 15  1  0  0  0  0
 15 16  1  0  0  0  0
 16 17  1  0  0  0  0
 12 17  1  0  0  0  0
  8 18  4  0  0  0  0
 18 19  1  0  0  0  0
 19 20  2  0  0  0  0
 19 21  1  0  0  0  0
 21 22  1  0  0  0  0
 22 23  1  0  0  0  0
 23 24  4  0  0  0  0
 24 25  4  0  0  0  0
 25 26  4  0  0  0  0
 26 27  1  0  0  0  0
 26 28  4  0  0  0  0
 28 29  4  0  0  0  0
 23 29  4  0  0  0  0
 22 30  1  0  0  0  0
 30 31  1  0  0  0  0
 22 31  1  0  0  0  0
 18 32  4  0  0  0  0
 32 33  4  0  0  0  0
  6 33  4  0  0  0  0
 33 34  1  0  0  0  0
  5 35  4  0  0  0  0
 35 36  2  0  0  0  0
 35 37  4  0  0  0  0
  3 37  4  0  0  0  0
 37 38  1  0  0  0  0
M  END
> <IC50(uM)>
0.045

> <Outcome>
1.0

> <BindingDB ID>
1098812; 972658

> <BindingDB MonomerID>
470536

> <BindingDB Ligand Name>
2-[(1S)-1-cyclohexylethoxy]-4-(3-ethyl-4-methyl-5-oxo-4,5-dihydro-1H-1,2,4-triazol-1-yl)-5-fluoro-N-[1-(4-fluorophenyl)cyclopropyl]benzamide::US10815215, Example 196::US11130745, Example 196; 2-[(1S)-1-cyclohexylethoxy]-4-(3-ethyl-4-methyl-5-oxo-4,5-dihydro-1H-1,2,4-triazol-1-yl)-5-fluoro-N-[1-(4-fluorophenyl)cyclopropyl]benzamide::US10815215, Example 196

> <Curation/DataSource>
US Patent

> <Article DOI>
?

> <PMID>
?

> <Patent Number>
US11130745; US10815215

> <Authors>
Gradl, SN; Nguyen, D; Eis, K; Gunther, J; Stellfeld, T; Janzer, A; Christian, S; Muller, T; Sheikh, SE; Sykes, DB; Ferrara, SJ; Krober, M; Merz, C; Niehues, M; Schafer, M; Zimmermann, K; Nising, CF; Gradl, SN; Nguyen, D; Eis, K; Gunther, J; Stellfeld, T; Janzer, A; Christian, S; Muller, T; Sheikh, SE; Zhou, HJ; Zhao, C; Sykes, DB; Ferrara, SJ; Liu, K; Krober, M; Merz, C; Niehues, M; Schafer, M; Zimmermann, K; Nising, CF

> <Link to Ligand in BindingDB>
http://www.bindingdb.org/bind/chemsearch/marvin/MolStructure.jsp?monomerid=470536

> <Link to Ligand-Target Pair in BindingDB>
http://www.bindingdb.org/jsp/dbsearch/PrimarySearch_ki.jsp?energyterm=kJ/mole&tag=r21&monomerid=470536&enzyme=Dihydroorotate+dehydrogenase&column=ki&startPg=0&Increment=50&submit=Search

> <PubChem CID>
134470422

> <PubChem SID>
441609712

$$$$

  Mrv2115 07222212352D          

 26 29  0  0  0  0            999 V2000
   -1.4289   -4.1250    0.0000 C   0  0  0  0  0  0  0  0  0  0  0  0
   -2.1434   -3.7125    0.0000 C   0  0  0  0  0  0  0  0  0  0  0  0
   -2.8579   -4.1250    0.0000 C   0  0  0  0  0  0  0  0  0  0  0  0
   -3.5724   -3.7125    0.0000 C   0  0  0  0  0  0  0  0  0  0  0  0
   -3.5724   -2.8875    0.0000 N   0  0  0  0  0  0  0  0  0  0  0  0
   -2.8579   -2.4750    0.0000 C   0  0  0  0  0  0  0  0  0  0  0  0
   -2.1434   -2.8875    0.0000 C   0  0  0  0  0  0  0  0  0  0  0  0
   -1.4289   -2.4750    0.0000 C   0  0  0  0  0  0  0  0  0  0  0  0
   -1.4289   -1.6500    0.0000 C   0  0  0  0  0  0  0  0  0  0  0  0
   -0.7145   -1.2375    0.0000 C   0  0  0  0  0  0  0  0  0  0  0  0
    0.0000   -1.6500    0.0000 C   0  0  0  0  0  0  0  0  0  0  0  0
    0.7145   -1.2375    0.0000 C   0  0  0  0  0  0  0  0  0  0  0  0
    0.7145   -0.4125    0.0000 C   0  0  0  0  0  0  0  0  0  0  0  0
    1.4289    0.0000    0.0000 C   0  0  0  0  0  0  0  0  0  0  0  0
    1.4289    0.8250    0.0000 C   0  0  0  0  0  0  0  0  0  0  0  0
    2.1434    1.2375    0.0000 O   0  0  0  0  0  0  0  0  0  0  0  0
    0.7145    1.2375    0.0000 O   0  0  0  0  0  0  0  0  0  0  0  0
    2.1434   -0.4125    0.0000 C   0  0  0  0  0  0  0  0  0  0  0  0
    2.8579    0.0000    0.0000 C   0  0  0  0  0  0  0  0  0  0  0  0
    3.5724   -0.4125    0.0000 C   0  0  0  0  0  0  0  0  0  0  0  0
    3.5724   -1.2375    0.0000 C   0  0  0  0  0  0  0  0  0  0  0  0
    2.8579   -1.6500    0.0000 C   0  0  0  0  0  0  0  0  0  0  0  0
    2.1434   -1.2375    0.0000 C   0  0  0  0  0  0  0  0  0  0  0  0
    1.4289   -1.6500    0.0000 N   0  0  0  0  0  0  0  0  0  0  0  0
    0.0000   -2.4750    0.0000 C   0  0  0  0  0  0  0  0  0  0  0  0
   -0.7145   -2.8875    0.0000 C   0  0  0  0  0  0  0  0  0  0  0  0
  1  2  1  0  0  0  0
  2  3  4  0  0  0  0
  3  4  4  0  0  0  0
  4  5  4  0  0  0  0
  5  6  4  0  0  0  0
  6  7  4  0  0  0  0
  2  7  4  0  0  0  0
  7  8  1  0  0  0  0
  8  9  4  0  0  0  0
  9 10  4  0  0  0  0
 10 11  4  0  0  0  0
 11 12  1  0  0  0  0
 12 13  4  0  0  0  0
 13 14  4  0  0  0  0
 14 15  1  0  0  0  0
 15 16  2  0  0  0  0
 15 17  1  0  0  0  0
 14 18  4  0  0  0  0
 18 19  4  0  0  0  0
 19 20  4  0  0  0  0
 20 21  4  0  0  0  0
 21 22  4  0  0  0  0
 22 23  4  0  0  0  0
 18 23  4  0  0  0  0
 23 24  4  0  0  0  0
 12 24  4  0  0  0  0
 11 25  4  0  0  0  0
 25 26  4  0  0  0  0
  8 26  4  0  0  0  0
M  END
> <IC50(uM)>
0.373

> <Outcome>
1.0

> <BindingDB ID>
51126210

> <BindingDB MonomerID>
50461894

> <BindingDB Ligand Name>
CHEMBL4227322

> <Curation/DataSource>
ChEMBL

> <Article DOI>
10.1021/acs.jmedchem.7b01862

> <PMID>
29727569

> <Patent Number>
?

> <Authors>
Madak, JT; Cuthbertson, CR; Miyata, Y; Tamura, S; Petrunak, EM; Stuckey, JA; Han, Y; He, M; Sun, D; Showalter, HD; Neamati, N

> <Link to Ligand in BindingDB>
http://www.bindingdb.org/bind/chemsearch/marvin/MolStructure.jsp?monomerid=50461894

> <Link to Ligand-Target Pair in BindingDB>
http://www.bindingdb.org/jsp/dbsearch/PrimarySearch_ki.jsp?energyterm=kJ/mole&tag=r21&monomerid=50461894&enzyme=Dihydroorotate+dehydrogenase&column=ki&startPg=0&Increment=50&submit=Search

> <PubChem CID>
145969747

> <PubChem SID>
433929159

$$$$

  Mrv2115 07222212352D          

 25 26  0  0  0  0            999 V2000
   -3.5724   -2.8875    0.0000 C   0  0  0  0  0  0  0  0  0  0  0  0
   -2.8579   -2.4750    0.0000 O   0  0  0  0  0  0  0  0  0  0  0  0
   -2.1434   -2.8875    0.0000 C   0  0  0  0  0  0  0  0  0  0  0  0
   -2.1434   -3.7125    0.0000 O   0  0  0  0  0  0  0  0  0  0  0  0
   -1.4289   -2.4750    0.0000 C   0  0  0  0  0  0  0  0  0  0  0  0
   -1.4289   -1.6500    0.0000 C   0  0  0  0  0  0  0  0  0  0  0  0
   -0.7145   -1.2375    0.0000 C   0  0  0  0  0  0  0  0  0  0  0  0
    0.0000   -1.6500    0.0000 C   0  0  0  0  0  0  0  0  0  0  0  0
    0.0000   -2.4750    0.0000 C   0  0  0  0  0  0  0  0  0  0  0  0
    0.7145   -2.8875    0.0000 C   0  0  0  0  0  0  0  0  0  0  0  0
    1.4289   -2.4750    0.0000 C   0  0  0  0  0  0  0  0  0  0  0  0
    2.1434   -2.8875    0.0000 C   0  0  0  0  0  0  0  0  0  0  0  0
    2.8579   -2.4750    0.0000 C   0  0  0  0  0  0  0  0  0  0  0  0
    3.5724   -2.8875    0.0000 C   0  0  0  0  0  0  0  0  0  0  0  0
    4.2868   -2.4750    0.0000 C   0  0  0  0  0  0  0  0  0  0  0  0
    4.2868   -1.6500    0.0000 C   0  0  0  0  0  0  0  0  0  0  0  0
    5.0013   -1.2375    0.0000 O   0  0  0  0  0  0  0  0  0  0  0  0
    3.5724   -1.2375    0.0000 O   0  0  0  0  0  0  0  0  0  0  0  0
    5.0013   -2.8875    0.0000 N   0  0  0  0  0  0  0  0  0  0  0  0
    5.0013   -3.7125    0.0000 C   0  0  0  0  0  0  0  0  0  0  0  0
    5.7158   -4.1250    0.0000 O   0  0  0  0  0  0  0  0  0  0  0  0
    4.2868   -4.1250    0.0000 N   0  0  0  0  0  0  0  0  0  0  0  0
    3.5724   -3.7125    0.0000 C   0  0  0  0  0  0  0  0  0  0  0  0
    2.8579   -4.1250    0.0000 O   0  0  0  0  0  0  0  0  0  0  0  0
   -0.7145   -2.8875    0.0000 C   0  0  0  0  0  0  0  0  0  0  0  0
  1  2  1  0  0  0  0
  2  3  1  0  0  0  0
  3  4  2  0  0  0  0
  3  5  1  0  0  0  0
  5  6  4  0  0  0  0
  6  7  4  0  0  0  0
  7  8  4  0  0  0  0
  8  9  4  0  0  0  0
  9 10  1  0  0  0  0
 10 11  1  0  0  0  0
 11 12  1  0  0  0  0
 12 13  1  0  0  0  0
 13 14  1  0  0  0  0
 14 15  4  0  0  0  0
 15 16  1  0  0  0  0
 16 17  2  0  0  0  0
 16 18  1  0  0  0  0
 15 19  4  0  0  0  0
 19 20  4  0  0  0  0
 20 21  2  0  0  0  0
 20 22  4  0  0  0  0
 22 23  4  0  0  0  0
 14 23  4  0  0  0  0
 23 24  2  0  0  0  0
  9 25  4  0  0  0  0
  5 25  4  0  0  0  0
M  STY  2   1 DAT   2 DAT
M  SAL   1  1  19
M  SDT   1 MRV_IMPLICIT_H                                        
M  SDD   1     0.5304   -0.4125    DR    ALL  0       0  
M  SED   1 IMPL_H1
M  SAL   2  1  22
M  SDT   2 MRV_IMPLICIT_H                                        
M  SDD   2     0.6482   -0.4125    DR    ALL  0       0  
M  SED   2 IMPL_H1
M  END
> <IC50(uM)>
0.147

> <Outcome>
1.0

> <BindingDB ID>
50555420

> <BindingDB MonomerID>
50211947

> <BindingDB Ligand Name>
CHEMBL3901641

> <Curation/DataSource>
ChEMBL

> <Article DOI>
10.1016/j.bmc.2017.01.009

> <PMID>
28118956

> <Patent Number>
?

> <Authors>
Inaoka, DK; Iida, M; Hashimoto, S; Tabuchi, T; Kuranaga, T; Balogun, EO; Honma, T; Tanaka, A; Harada, S; Nara, T; Kita, K; Inoue, M

> <Link to Ligand in BindingDB>
http://www.bindingdb.org/bind/chemsearch/marvin/MolStructure.jsp?monomerid=50211947

> <Link to Ligand-Target Pair in BindingDB>
http://www.bindingdb.org/jsp/dbsearch/PrimarySearch_ki.jsp?energyterm=kJ/mole&tag=r21&monomerid=50211947&enzyme=Dihydroorotate+dehydrogenase&column=ki&startPg=0&Increment=50&submit=Search

> <PubChem CID>
134135269

> <PubChem SID>
375983072

$$$$

  Mrv2115 07222212352D          

 26 29  0  0  0  0            999 V2000
    3.9934    2.4750    0.0000 O   0  0  0  0  0  0  0  0  0  0  0  0
    3.2789    2.0625    0.0000 C   0  0  0  0  0  0  0  0  0  0  0  0
    2.5645    2.4750    0.0000 O   0  0  0  0  0  0  0  0  0  0  0  0
    3.2789    1.2375    0.0000 C   0  0  0  0  0  0  0  0  0  0  0  0
    3.9934    0.8250    0.0000 C   0  0  0  0  0  0  0  0  0  0  0  0
    3.9934    0.0000    0.0000 C   0  0  0  0  0  0  0  0  0  0  0  0
    3.2789   -0.4125    0.0000 C   0  0  0  0  0  0  0  0  0  0  0  0
    2.5645    0.0000    0.0000 C   0  0  0  0  0  0  0  0  0  0  0  0
    1.7798   -0.2549    0.0000 N   0  0  0  0  0  0  0  0  0  0  0  0
    1.2949    0.4125    0.0000 C   0  0  0  0  0  0  0  0  0  0  0  0
    0.4699    0.4125    0.0000 C   0  0  0  0  0  0  0  0  0  0  0  0
    0.0574   -0.3020    0.0000 C   0  0  0  0  0  0  0  0  0  0  0  0
   -0.7676   -0.3020    0.0000 C   0  0  0  0  0  0  0  0  0  0  0  0
   -1.1801    0.4125    0.0000 C   0  0  0  0  0  0  0  0  0  0  0  0
   -2.0051    0.4125    0.0000 C   0  0  0  0  0  0  0  0  0  0  0  0
   -2.4176   -0.3020    0.0000 C   0  0  0  0  0  0  0  0  0  0  0  0
   -3.2426   -0.3020    0.0000 C   0  0  0  0  0  0  0  0  0  0  0  0
   -3.6551    0.4125    0.0000 C   0  0  0  0  0  0  0  0  0  0  0  0
   -3.2426    1.1270    0.0000 C   0  0  0  0  0  0  0  0  0  0  0  0
   -2.4176    1.1270    0.0000 C   0  0  0  0  0  0  0  0  0  0  0  0
   -2.0051    1.8414    0.0000 F   0  0  0  0  0  0  0  0  0  0  0  0
   -0.7676    1.1270    0.0000 C   0  0  0  0  0  0  0  0  0  0  0  0
    0.0574    1.1270    0.0000 C   0  0  0  0  0  0  0  0  0  0  0  0
    0.4699    1.8414    0.0000 F   0  0  0  0  0  0  0  0  0  0  0  0
    1.7798    1.0799    0.0000 N   0  0  0  0  0  0  0  0  0  0  0  0
    2.5645    0.8250    0.0000 C   0  0  0  0  0  0  0  0  0  0  0  0
  1  2  2  0  0  0  0
  2  3  1  0  0  0  0
  2  4  1  0  0  0  0
  4  5  4  0  0  0  0
  5  6  4  0  0  0  0
  6  7  4  0  0  0  0
  7  8  4  0  0  0  0
  8  9  4  0  0  0  0
  9 10  4  0  0  0  0
 10 11  1  0  0  0  0
 11 12  4  0  0  0  0
 12 13  4  0  0  0  0
 13 14  4  0  0  0  0
 14 15  1  0  0  0  0
 15 16  4  0  0  0  0
 16 17  4  0  0  0  0
 17 18  4  0  0  0  0
 18 19  4  0  0  0  0
 19 20  4  0  0  0  0
 15 20  4  0  0  0  0
 20 21  1  0  0  0  0
 14 22  4  0  0  0  0
 22 23  4  0  0  0  0
 11 23  4  0  0  0  0
 23 24  1  0  0  0  0
 10 25  4  0  0  0  0
 25 26  4  0  0  0  0
  4 26  4  0  0  0  0
  8 26  4  0  0  0  0
M  STY  1   1 DAT
M  SAL   1  1  25
M  SDT   1 MRV_IMPLICIT_H                                        
M  SDD   1     0.5304   -0.4125    DR    ALL  0       0  
M  SED   1 IMPL_H1
M  END
> <IC50(uM)>
0.965

> <Outcome>
1.0

> <BindingDB ID>
297756

> <BindingDB MonomerID>
155412

> <BindingDB Ligand Name>
US9006454, I24

> <Curation/DataSource>
US Patent

> <Article DOI>
?

> <PMID>
?

> <Patent Number>
US9006454

> <Authors>
Thunuguntla, SS; Subramanya, H; Kunnam, SR; Sanivaru Vijay, SR; Bingi, C; Kusanur, R; Schwarz, M; Arlt, M

> <Link to Ligand in BindingDB>
http://www.bindingdb.org/bind/chemsearch/marvin/MolStructure.jsp?monomerid=155412

> <Link to Ligand-Target Pair in BindingDB>
http://www.bindingdb.org/jsp/dbsearch/PrimarySearch_ki.jsp?energyterm=kJ/mole&tag=r21&monomerid=155412&enzyme=Dihydroorotate+dehydrogenase&column=ki&startPg=0&Increment=50&submit=Search

> <PubChem CID>
46945989

> <PubChem SID>
253658349

$$$$

  Mrv2115 07222212352D          

 29 33  0  0  0  0            999 V2000
    3.3033   -3.8350    0.0000 C   0  0  0  0  0  0  0  0  0  0  0  0
    3.0483   -3.0504    0.0000 O   0  0  0  0  0  0  0  0  0  0  0  0
    3.6004   -2.4373    0.0000 C   0  0  0  0  0  0  0  0  0  0  0  0
    3.3454   -1.6527    0.0000 C   0  0  0  0  0  0  0  0  0  0  0  0
    3.8974   -1.0396    0.0000 C   0  0  0  0  0  0  0  0  0  0  0  0
    3.6425   -0.2549    0.0000 N   0  0  0  0  0  0  0  0  0  0  0  0
    4.1274    0.4125    0.0000 N   0  0  0  0  0  0  0  0  0  0  0  0
    3.6425    1.0799    0.0000 N   0  0  0  0  0  0  0  0  0  0  0  0
    2.8579    0.8250    0.0000 C   0  0  0  0  0  0  0  0  0  0  0  0
    2.8579    0.0000    0.0000 C   0  0  0  0  0  0  0  0  0  0  0  0
    2.1434   -0.4125    0.0000 C   0  0  0  0  0  0  0  0  0  0  0  0
    2.1434   -1.2375    0.0000 O   0  0  0  0  0  0  0  0  0  0  0  0
    1.4289   -0.0000    0.0000 C   0  0  0  0  0  0  0  0  0  0  0  0
    0.7145   -0.4125    0.0000 C   0  0  0  0  0  0  0  0  0  0  0  0
   -0.0000    0.0000    0.0000 C   0  0  0  0  0  0  0  0  0  0  0  0
    0.0000    0.8250    0.0000 C   0  0  0  0  0  0  0  0  0  0  0  0
    0.7145    1.2375    0.0000 C   0  0  0  0  0  0  0  0  0  0  0  0
    1.4289    0.8250    0.0000 C   0  0  0  0  0  0  0  0  0  0  0  0
    2.1434    1.2375    0.0000 C   0  0  0  0  0  0  0  0  0  0  0  0
    2.1434    2.0625    0.0000 O   0  0  0  0  0  0  0  0  0  0  0  0
    4.7044   -1.2111    0.0000 C   0  0  0  0  0  0  0  0  0  0  0  0
    4.9594   -1.9957    0.0000 C   0  0  0  0  0  0  0  0  0  0  0  0
    4.4073   -2.6088    0.0000 C   0  0  0  0  0  0  0  0  0  0  0  0
    4.6623   -3.3934    0.0000 C   0  0  0  0  0  0  0  0  0  0  0  0
    5.4692   -3.5650    0.0000 C   0  0  0  0  0  0  0  0  0  0  0  0
    5.7242   -4.3496    0.0000 C   0  0  0  0  0  0  0  0  0  0  0  0
    5.1721   -4.9627    0.0000 C   0  0  0  0  0  0  0  0  0  0  0  0
    4.3652   -4.7911    0.0000 C   0  0  0  0  0  0  0  0  0  0  0  0
    4.1102   -4.0065    0.0000 C   0  0  0  0  0  0  0  0  0  0  0  0
  1  2  1  0  0  0  0
  2  3  1  0  0  0  0
  3  4  4  0  0  0  0
  4  5  4  0  0  0  0
  5  6  1  0  0  0  0
  6  7  4  0  0  0  0
  7  8  4  0  0  0  0
  8  9  4  0  0  0  0
  9 10  4  0  0  0  0
  6 10  4  0  0  0  0
 10 11  1  0  0  0  0
 11 12  2  0  0  0  0
 11 13  1  0  0  0  0
 13 14  4  0  0  0  0
 14 15  4  0  0  0  0
 15 16  4  0  0  0  0
 16 17  4  0  0  0  0
 17 18  4  0  0  0  0
 13 18  4  0  0  0  0
 18 19  1  0  0  0  0
  9 19  1  0  0  0  0
 19 20  2  0  0  0  0
  5 21  4  0  0  0  0
 21 22  4  0  0  0  0
 22 23  4  0  0  0  0
  3 23  4  0  0  0  0
 23 24  1  0  0  0  0
 24 25  4  0  0  0  0
 25 26  4  0  0  0  0
 26 27  4  0  0  0  0
 27 28  4  0  0  0  0
 28 29  4  0  0  0  0
 24 29  4  0  0  0  0
M  END
> <IC50(uM)>
0.0040999999999999995

> <Outcome>
1.0

> <BindingDB ID>
51338192

> <BindingDB MonomerID>
50541666

> <BindingDB Ligand Name>
CHEMBL4633521

> <Curation/DataSource>
ChEMBL

> <Article DOI>
10.1021/acs.jmedchem.0c00512

> <PMID>
32496056

> <Patent Number>
?

> <Authors>
Zuo, Z; Liu, X; Qian, X; Zeng, T; Sang, N; Liu, H; Zhou, Y; Tao, L; Zhou, X; Su, N; Yu, Y; Chen, Q; Luo, Y; Zhao, Y

> <Link to Ligand in BindingDB>
http://www.bindingdb.org/bind/chemsearch/marvin/MolStructure.jsp?monomerid=50541666

> <Link to Ligand-Target Pair in BindingDB>
http://www.bindingdb.org/jsp/dbsearch/PrimarySearch_ki.jsp?energyterm=kJ/mole&tag=r21&monomerid=50541666&enzyme=Dihydroorotate+dehydrogenase&column=ki&startPg=0&Increment=50&submit=Search

> <PubChem CID>
156011004

> <PubChem SID>
442143229

$$$$

  Mrv2115 07222212352D          

 20 21  0  0  0  0            999 V2000
    1.4289   -0.8250    0.0000 C   0  0  0  0  0  0  0  0  0  0  0  0
    1.4289   -1.6500    0.0000 C   0  0  0  0  0  0  0  0  0  0  0  0
    0.6039   -1.6500    0.0000 C   0  0  0  0  0  0  0  0  0  0  0  0
    2.2539   -1.6500    0.0000 C   0  0  0  0  0  0  0  0  0  0  0  0
    1.4289   -2.4750    0.0000 C   0  0  0  0  0  0  0  0  0  0  0  0
    2.0964   -2.9599    0.0000 O   0  0  0  0  0  0  0  0  0  0  0  0
    1.8414   -3.7445    0.0000 N   0  0  0  0  0  0  0  0  0  0  0  0
    1.0164   -3.7445    0.0000 C   0  0  0  0  0  0  0  0  0  0  0  0
    0.7615   -2.9599    0.0000 C   0  0  0  0  0  0  0  0  0  0  0  0
   -0.0231   -2.7050    0.0000 C   0  0  0  0  0  0  0  0  0  0  0  0
   -0.1946   -1.8980    0.0000 S   0  0  0  0  0  0  0  0  0  0  0  0
   -0.6362   -3.2570    0.0000 N   0  0  0  0  0  0  0  0  0  0  0  0
   -1.4208   -3.0021    0.0000 C   0  0  0  0  0  0  0  0  0  0  0  0
   -2.0339   -3.5541    0.0000 C   0  0  0  0  0  0  0  0  0  0  0  0
   -2.8186   -3.2992    0.0000 C   0  0  0  0  0  0  0  0  0  0  0  0
   -2.9901   -2.4922    0.0000 C   0  0  0  0  0  0  0  0  0  0  0  0
   -3.7747   -2.2373    0.0000 C   0  0  0  0  0  0  0  0  0  0  0  0
   -4.5593   -1.9823    0.0000 N   0  0  0  0  0  0  0  0  0  0  0  0
   -2.3770   -1.9402    0.0000 C   0  0  0  0  0  0  0  0  0  0  0  0
   -1.5924   -2.1951    0.0000 C   0  0  0  0  0  0  0  0  0  0  0  0
  1  2  1  0  0  0  0
  2  3  1  0  0  0  0
  2  4  1  0  0  0  0
  2  5  1  0  0  0  0
  5  6  4  0  0  0  0
  6  7  4  0  0  0  0
  7  8  4  0  0  0  0
  8  9  4  0  0  0  0
  5  9  4  0  0  0  0
  9 10  1  0  0  0  0
 10 11  2  0  0  0  0
 10 12  1  0  0  0  0
 12 13  1  0  0  0  0
 13 14  4  0  0  0  0
 14 15  4  0  0  0  0
 15 16  4  0  0  0  0
 16 17  1  0  0  0  0
 17 18  3  0  0  0  0
 16 19  4  0  0  0  0
 19 20  4  0  0  0  0
 13 20  4  0  0  0  0
M  END
> <IC50(uM)>
50.0

> <Outcome>
0.0

> <BindingDB ID>
50123298

> <BindingDB MonomerID>
50071390

> <BindingDB Ligand Name>
5-tert-Butyl-isoxazole-4-carbothioic acid (4-cyano-phenyl)-amide::CHEMBL67656

> <Curation/DataSource>
ChEMBL

> <Article DOI>
10.1016/s0960-894x(98)00365-5

> <PMID>
9873513

> <Patent Number>
?

> <Authors>
Albert, R; Knecht, H; Andersen, E; Hungerford, V; Schreier, MH; Papageorgiou, C

> <Link to Ligand in BindingDB>
http://www.bindingdb.org/bind/chemsearch/marvin/MolStructure.jsp?monomerid=50071390

> <Link to Ligand-Target Pair in BindingDB>
http://www.bindingdb.org/jsp/dbsearch/PrimarySearch_ki.jsp?energyterm=kJ/mole&tag=r21&monomerid=50071390&enzyme=Dihydroorotate+dehydrogenase&column=ki&startPg=0&Increment=50&submit=Search

> <PubChem CID>
44310365

> <PubChem SID>
103965144

$$$$

  Mrv2115 07222212352D          

 35 37  0  0  0  0            999 V2000
    2.1434   -3.7125    0.0000 C   0  0  0  0  0  0  0  0  0  0  0  0
    1.4289   -4.1250    0.0000 C   0  0  0  0  0  0  0  0  0  0  0  0
    1.4289   -4.9500    0.0000 N   0  0  0  0  0  0  0  0  0  0  0  0
    0.7615   -5.4349    0.0000 C   0  0  0  0  0  0  0  0  0  0  0  0
   -0.0231   -5.1800    0.0000 C   0  0  0  0  0  0  0  0  0  0  0  0
   -0.1946   -4.3730    0.0000 O   0  0  0  0  0  0  0  0  0  0  0  0
    1.0164   -6.2195    0.0000 N   0  0  0  0  0  0  0  0  0  0  0  0
    1.8414   -6.2195    0.0000 N   0  0  0  0  0  0  0  0  0  0  0  0
    2.3264   -6.8870    0.0000 C   0  0  0  0  0  0  0  0  0  0  0  0
    3.1468   -6.8007    0.0000 C   0  0  0  0  0  0  0  0  0  0  0  0
    3.6318   -7.4682    0.0000 C   0  0  0  0  0  0  0  0  0  0  0  0
    4.4522   -7.3820    0.0000 O   0  0  0  0  0  0  0  0  0  0  0  0
    4.7878   -6.6283    0.0000 C   0  0  0  0  0  0  0  0  0  0  0  0
    4.3029   -5.9608    0.0000 C   0  0  0  0  0  0  0  0  0  0  0  0
    5.6083   -6.5420    0.0000 C   0  0  0  0  0  0  0  0  0  0  0  0
    5.6945   -7.3625    0.0000 F   0  0  0  0  0  0  0  0  0  0  0  0
    5.5221   -5.7216    0.0000 F   0  0  0  0  0  0  0  0  0  0  0  0
    6.4288   -6.4558    0.0000 F   0  0  0  0  0  0  0  0  0  0  0  0
    3.2962   -8.2219    0.0000 C   0  0  0  0  0  0  0  0  0  0  0  0
    3.7811   -8.8893    0.0000 C   0  0  0  0  0  0  0  0  0  0  0  0
    3.4456   -9.6430    0.0000 O   0  0  0  0  0  0  0  0  0  0  0  0
    4.6016   -8.8031    0.0000 N   0  0  0  0  0  0  0  0  0  0  0  0
    5.0865   -9.4705    0.0000 C   0  0  0  0  0  0  0  0  0  0  0  0
    5.9070   -9.3843    0.0000 C   0  0  0  0  0  0  0  0  0  0  0  0
    6.2426   -8.6306    0.0000 Cl  0  0  0  0  0  0  0  0  0  0  0  0
    6.3919  -10.0517    0.0000 C   0  0  0  0  0  0  0  0  0  0  0  0
    6.0564  -10.8054    0.0000 C   0  0  0  0  0  0  0  0  0  0  0  0
    5.2359  -10.8916    0.0000 C   0  0  0  0  0  0  0  0  0  0  0  0
    4.7510  -10.2242    0.0000 C   0  0  0  0  0  0  0  0  0  0  0  0
    3.9305  -10.3104    0.0000 Cl  0  0  0  0  0  0  0  0  0  0  0  0
    2.4757   -8.3081    0.0000 C   0  0  0  0  0  0  0  0  0  0  0  0
    1.9908   -7.6407    0.0000 C   0  0  0  0  0  0  0  0  0  0  0  0
    1.1703   -7.7269    0.0000 F   0  0  0  0  0  0  0  0  0  0  0  0
    2.0964   -5.4349    0.0000 C   0  0  0  0  0  0  0  0  0  0  0  0
    2.8810   -5.1800    0.0000 O   0  0  0  0  0  0  0  0  0  0  0  0
  1  2  1  0  0  0  0
  2  3  1  0  0  0  0
  3  4  4  0  0  0  0
  4  5  1  0  0  0  0
  5  6  1  0  0  0  0
  4  7  4  0  0  0  0
  7  8  4  0  0  0  0
  8  9  1  0  0  0  0
  9 10  4  0  0  0  0
 10 11  4  0  0  0  0
 11 12  1  0  0  0  0
 12 13  1  0  0  0  0
 13 14  1  0  0  0  0
 13 15  1  0  0  0  0
 15 16  1  0  0  0  0
 15 17  1  0  0  0  0
 15 18  1  0  0  0  0
 11 19  4  0  0  0  0
 19 20  1  0  0  0  0
 20 21  2  0  0  0  0
 20 22  1  0  0  0  0
 22 23  1  0  0  0  0
 23 24  4  0  0  0  0
 24 25  1  0  0  0  0
 24 26  4  0  0  0  0
 26 27  4  0  0  0  0
 27 28  4  0  0  0  0
 28 29  4  0  0  0  0
 23 29  4  0  0  0  0
 29 30  1  0  0  0  0
 19 31  4  0  0  0  0
 31 32  4  0  0  0  0
  9 32  4  0  0  0  0
 32 33  1  0  0  0  0
  8 34  4  0  0  0  0
  3 34  4  0  0  0  0
 34 35  2  0  0  0  0
M  END
> <IC50(uM)>
0.003

> <Outcome>
1.0

> <BindingDB ID>
972590; 1098744

> <BindingDB MonomerID>
470466

> <BindingDB Ligand Name>
N-(2,6-dichlorophenyl)-4-[4-ethyl-3-(hydroxymethyl)-5-oxo-4,5-dihydro-1H-1,2,4-triazol-1-yl]-5-fluoro-2-{[(2S)-1,1,1-trifluoropropan-2-yl]oxy}benzamide::US10815215, Example 132; N-(2,6-dichlorophenyl)-4-[4-ethyl-3-(hydroxymethyl)-5-oxo-4,5-dihydro-1H-1,2,4-triazol-1-yl]-5-fluoro-2-{[(2S)-1,1,1-trifluoropropan-2-yl]oxy}benzamide::US10815215, Example 132::US11130745, Example 132

> <Curation/DataSource>
US Patent

> <Article DOI>
?

> <PMID>
?

> <Patent Number>
US10815215; US11130745

> <Authors>
Gradl, SN; Nguyen, D; Eis, K; Gunther, J; Stellfeld, T; Janzer, A; Christian, S; Muller, T; Sheikh, SE; Zhou, HJ; Zhao, C; Sykes, DB; Ferrara, SJ; Liu, K; Krober, M; Merz, C; Niehues, M; Schafer, M; Zimmermann, K; Nising, CF; Gradl, SN; Nguyen, D; Eis, K; Gunther, J; Stellfeld, T; Janzer, A; Christian, S; Muller, T; Sheikh, SE; Sykes, DB; Ferrara, SJ; Krober, M; Merz, C; Niehues, M; Schafer, M; Zimmermann, K; Nising, CF

> <Link to Ligand in BindingDB>
http://www.bindingdb.org/bind/chemsearch/marvin/MolStructure.jsp?monomerid=470466

> <Link to Ligand-Target Pair in BindingDB>
http://www.bindingdb.org/jsp/dbsearch/PrimarySearch_ki.jsp?energyterm=kJ/mole&tag=r21&monomerid=470466&enzyme=Dihydroorotate+dehydrogenase&column=ki&startPg=0&Increment=50&submit=Search

> <PubChem CID>
134469952

> <PubChem SID>
441609643

$$$$

  Mrv2115 07222212352D          

 22 24  0  0  0  0            999 V2000
   -2.2127    2.8324    0.0000 F   0  0  0  0  0  0  0  0  0  0  0  0
   -2.0412    3.6394    0.0000 C   0  0  0  0  0  0  0  0  0  0  0  0
   -1.2342    3.4679    0.0000 F   0  0  0  0  0  0  0  0  0  0  0  0
   -2.8481    3.8109    0.0000 F   0  0  0  0  0  0  0  0  0  0  0  0
   -1.8696    4.4464    0.0000 O   0  0  0  0  0  0  0  0  0  0  0  0
   -1.0850    4.7013    0.0000 C   0  0  0  0  0  0  0  0  0  0  0  0
   -0.9135    5.5083    0.0000 C   0  0  0  0  0  0  0  0  0  0  0  0
   -0.1289    5.7632    0.0000 C   0  0  0  0  0  0  0  0  0  0  0  0
    0.4842    5.2112    0.0000 C   0  0  0  0  0  0  0  0  0  0  0  0
    1.2688    5.4661    0.0000 N   0  0  0  0  0  0  0  0  0  0  0  0
    1.8819    4.9141    0.0000 C   0  0  0  0  0  0  0  0  0  0  0  0
    1.7104    4.1071    0.0000 S   0  0  0  0  0  0  0  0  0  0  0  0
    2.6666    5.1690    0.0000 C   0  0  0  0  0  0  0  0  0  0  0  0
    2.9215    5.9537    0.0000 C   0  0  0  0  0  0  0  0  0  0  0  0
    3.7465    5.9537    0.0000 N   0  0  0  0  0  0  0  0  0  0  0  0
    4.0014    5.1690    0.0000 O   0  0  0  0  0  0  0  0  0  0  0  0
    3.3340    4.6841    0.0000 C   0  0  0  0  0  0  0  0  0  0  0  0
    3.3340    3.8591    0.0000 C   0  0  0  0  0  0  0  0  0  0  0  0
    3.7465    3.1446    0.0000 C   0  0  0  0  0  0  0  0  0  0  0  0
    2.9215    3.1446    0.0000 C   0  0  0  0  0  0  0  0  0  0  0  0
    0.3127    4.4042    0.0000 C   0  0  0  0  0  0  0  0  0  0  0  0
   -0.4719    4.1493    0.0000 C   0  0  0  0  0  0  0  0  0  0  0  0
  1  2  1  0  0  0  0
  2  3  1  0  0  0  0
  2  4  1  0  0  0  0
  2  5  1  0  0  0  0
  5  6  1  0  0  0  0
  6  7  4  0  0  0  0
  7  8  4  0  0  0  0
  8  9  4  0  0  0  0
  9 10  1  0  0  0  0
 10 11  1  0  0  0  0
 11 12  2  0  0  0  0
 11 13  1  0  0  0  0
 13 14  4  0  0  0  0
 14 15  4  0  0  0  0
 15 16  4  0  0  0  0
 16 17  4  0  0  0  0
 13 17  4  0  0  0  0
 17 18  1  0  0  0  0
 18 19  1  0  0  0  0
 19 20  1  0  0  0  0
 18 20  1  0  0  0  0
  9 21  4  0  0  0  0
 21 22  4  0  0  0  0
  6 22  4  0  0  0  0
M  END
> <IC50(uM)>
0.8

> <Outcome>
1.0

> <BindingDB ID>
50123295

> <BindingDB MonomerID>
50071387

> <BindingDB Ligand Name>
5-Cyclopropyl-isoxazole-4-carbothioic acid (4-trifluoromethoxy-phenyl)-amide::CHEMBL308141

> <Curation/DataSource>
ChEMBL

> <Article DOI>
10.1016/s0960-894x(98)00365-5

> <PMID>
9873513

> <Patent Number>
?

> <Authors>
Albert, R; Knecht, H; Andersen, E; Hungerford, V; Schreier, MH; Papageorgiou, C

> <Link to Ligand in BindingDB>
http://www.bindingdb.org/bind/chemsearch/marvin/MolStructure.jsp?monomerid=50071387

> <Link to Ligand-Target Pair in BindingDB>
http://www.bindingdb.org/jsp/dbsearch/PrimarySearch_ki.jsp?energyterm=kJ/mole&tag=r21&monomerid=50071387&enzyme=Dihydroorotate+dehydrogenase&column=ki&startPg=0&Increment=50&submit=Search

> <PubChem CID>
10404208

> <PubChem SID>
103965141

$$$$

  Mrv2115 07222212352D          

 34 36  0  0  0  0            999 V2000
    4.2868   -2.4750    0.0000 C   0  0  0  0  0  0  0  0  0  0  0  0
    3.5724   -2.8875    0.0000 C   0  0  0  0  0  0  0  0  0  0  0  0
    2.8579   -2.4750    0.0000 O   0  0  0  0  0  0  0  0  0  0  0  0
    2.1434   -2.8875    0.0000 C   0  0  0  0  0  0  0  0  0  0  0  0
    2.1434   -3.7125    0.0000 C   0  0  0  0  0  0  0  0  0  0  0  0
    1.4289   -4.1250    0.0000 C   0  0  0  0  0  0  0  0  0  0  0  0
    1.4289   -4.9500    0.0000 N   0  0  0  0  0  0  0  0  0  0  0  0
    2.0964   -5.4349    0.0000 N   0  0  0  0  0  0  0  0  0  0  0  0
    1.8414   -6.2195    0.0000 C   0  0  0  0  0  0  0  0  0  0  0  0
    2.3264   -6.8870    0.0000 C   0  0  0  0  0  0  0  0  0  0  0  0
    1.9908   -7.6407    0.0000 O   0  0  0  0  0  0  0  0  0  0  0  0
    1.0164   -6.2195    0.0000 N   0  0  0  0  0  0  0  0  0  0  0  0
    0.5315   -6.8870    0.0000 C   0  0  0  0  0  0  0  0  0  0  0  0
    0.7615   -5.4349    0.0000 C   0  0  0  0  0  0  0  0  0  0  0  0
   -0.0231   -5.1800    0.0000 O   0  0  0  0  0  0  0  0  0  0  0  0
    0.7145   -3.7125    0.0000 C   0  0  0  0  0  0  0  0  0  0  0  0
    0.0000   -4.1250    0.0000 F   0  0  0  0  0  0  0  0  0  0  0  0
    0.7145   -2.8875    0.0000 C   0  0  0  0  0  0  0  0  0  0  0  0
    1.4289   -2.4750    0.0000 C   0  0  0  0  0  0  0  0  0  0  0  0
    1.4289   -1.6500    0.0000 C   0  0  0  0  0  0  0  0  0  0  0  0
    2.1434   -1.2375    0.0000 O   0  0  0  0  0  0  0  0  0  0  0  0
    0.7145   -1.2375    0.0000 N   0  0  0  0  0  0  0  0  0  0  0  0
    0.7145   -0.4125    0.0000 C   0  0  0  0  0  0  0  0  0  0  0  0
    0.0000    0.0000    0.0000 C   0  0  0  0  0  0  0  0  0  0  0  0
   -0.7145   -0.4125    0.0000 Cl  0  0  0  0  0  0  0  0  0  0  0  0
    0.0000    0.8250    0.0000 C   0  0  0  0  0  0  0  0  0  0  0  0
    0.7145    1.2375    0.0000 C   0  0  0  0  0  0  0  0  0  0  0  0
    1.4289    0.8250    0.0000 C   0  0  0  0  0  0  0  0  0  0  0  0
    1.4289    0.0000    0.0000 C   0  0  0  0  0  0  0  0  0  0  0  0
    2.1434   -0.4125    0.0000 Cl  0  0  0  0  0  0  0  0  0  0  0  0
    3.5724   -3.7125    0.0000 C   0  0  0  0  0  0  0  0  0  0  0  0
    2.7474   -3.7125    0.0000 F   0  0  0  0  0  0  0  0  0  0  0  0
    4.3974   -3.7125    0.0000 F   0  0  0  0  0  0  0  0  0  0  0  0
    3.5724   -4.5375    0.0000 F   0  0  0  0  0  0  0  0  0  0  0  0
  1  2  1  0  0  0  0
  2  3  1  0  0  0  0
  3  4  1  0  0  0  0
  4  5  4  0  0  0  0
  5  6  4  0  0  0  0
  6  7  1  0  0  0  0
  7  8  4  0  0  0  0
  8  9  4  0  0  0  0
  9 10  1  0  0  0  0
 10 11  1  0  0  0  0
  9 12  4  0  0  0  0
 12 13  1  0  0  0  0
 12 14  4  0  0  0  0
  7 14  4  0  0  0  0
 14 15  2  0  0  0  0
  6 16  4  0  0  0  0
 16 17  1  0  0  0  0
 16 18  4  0  0  0  0
 18 19  4  0  0  0  0
  4 19  4  0  0  0  0
 19 20  1  0  0  0  0
 20 21  2  0  0  0  0
 20 22  1  0  0  0  0
 22 23  1  0  0  0  0
 23 24  4  0  0  0  0
 24 25  1  0  0  0  0
 24 26  4  0  0  0  0
 26 27  4  0  0  0  0
 27 28  4  0  0  0  0
 28 29  4  0  0  0  0
 23 29  4  0  0  0  0
 29 30  1  0  0  0  0
  2 31  1  0  0  0  0
 31 32  1  0  0  0  0
 31 33  1  0  0  0  0
 31 34  1  0  0  0  0
M  END
> <IC50(uM)>
0.00433

> <Outcome>
1.0

> <BindingDB ID>
972589; 1098743

> <BindingDB MonomerID>
470465

> <BindingDB Ligand Name>
N-(2,6-dichlorophenyl)-5-fluoro-4-[3-(hydroxymethyl)-4-methyl-5-oxo-4,5-dihydro-1H-1,2,4-triazol-1-yl]-2-{[(2S)-1,1,1-trifluoropropan-2-yl]oxy}benzamide::US10815215, Example 131; N-(2,6-dichlorophenyl)-5-fluoro-4-[3-(hydroxymethyl)-4-methyl-5-oxo-4,5-dihydro-1H-1,2,4-triazol-1-yl]-2-{[(2S)-1,1,1-trifluoropropan-2-yl]oxy}benzamide::US10815215, Example 131::US11130745, Example 131

> <Curation/DataSource>
US Patent

> <Article DOI>
?

> <PMID>
?

> <Patent Number>
US10815215; US11130745

> <Authors>
Gradl, SN; Nguyen, D; Eis, K; Gunther, J; Stellfeld, T; Janzer, A; Christian, S; Muller, T; Sheikh, SE; Zhou, HJ; Zhao, C; Sykes, DB; Ferrara, SJ; Liu, K; Krober, M; Merz, C; Niehues, M; Schafer, M; Zimmermann, K; Nising, CF; Gradl, SN; Nguyen, D; Eis, K; Gunther, J; Stellfeld, T; Janzer, A; Christian, S; Muller, T; Sheikh, SE; Sykes, DB; Ferrara, SJ; Krober, M; Merz, C; Niehues, M; Schafer, M; Zimmermann, K; Nising, CF

> <Link to Ligand in BindingDB>
http://www.bindingdb.org/bind/chemsearch/marvin/MolStructure.jsp?monomerid=470465

> <Link to Ligand-Target Pair in BindingDB>
http://www.bindingdb.org/jsp/dbsearch/PrimarySearch_ki.jsp?energyterm=kJ/mole&tag=r21&monomerid=470465&enzyme=Dihydroorotate+dehydrogenase&column=ki&startPg=0&Increment=50&submit=Search

> <PubChem CID>
134470088

> <PubChem SID>
441609642

$$$$

  Mrv2115 07222212352D          

 21 23  0  0  0  0            999 V2000
    1.4289   -2.4750    0.0000 O   0  0  0  0  0  0  0  0  0  0  0  0
    1.4289   -1.6500    0.0000 C   0  0  0  0  0  0  0  0  0  0  0  0
    0.7145   -1.2375    0.0000 C   0  0  0  0  0  0  0  0  0  0  0  0
    0.0000   -1.6500    0.0000 O   0  0  0  0  0  0  0  0  0  0  0  0
    0.7145   -0.4125    0.0000 C   0  0  0  0  0  0  0  0  0  0  0  0
    0.0000    0.0000    0.0000 N   0  0  0  0  0  0  0  0  0  0  0  0
    0.0000    0.8250    0.0000 C   0  0  0  0  0  0  0  0  0  0  0  0
   -0.7145    1.2375    0.0000 C   0  0  0  0  0  0  0  0  0  0  0  0
   -0.7145    2.0625    0.0000 C   0  0  0  0  0  0  0  0  0  0  0  0
    0.0000    2.4750    0.0000 C   0  0  0  0  0  0  0  0  0  0  0  0
    0.7145    2.0625    0.0000 C   0  0  0  0  0  0  0  0  0  0  0  0
    1.4289    2.4750    0.0000 Cl  0  0  0  0  0  0  0  0  0  0  0  0
    0.7145    1.2375    0.0000 C   0  0  0  0  0  0  0  0  0  0  0  0
    1.4289    0.0000    0.0000 C   0  0  0  0  0  0  0  0  0  0  0  0
    1.4289    0.8250    0.0000 O   0  0  0  0  0  0  0  0  0  0  0  0
    2.1434   -0.4125    0.0000 C   0  0  0  0  0  0  0  0  0  0  0  0
    2.8579    0.0000    0.0000 C   0  0  0  0  0  0  0  0  0  0  0  0
    3.5724   -0.4125    0.0000 C   0  0  0  0  0  0  0  0  0  0  0  0
    3.5724   -1.2375    0.0000 C   0  0  0  0  0  0  0  0  0  0  0  0
    2.8579   -1.6500    0.0000 C   0  0  0  0  0  0  0  0  0  0  0  0
    2.1434   -1.2375    0.0000 C   0  0  0  0  0  0  0  0  0  0  0  0
  1  2  2  0  0  0  0
  2  3  1  0  0  0  0
  3  4  1  0  0  0  0
  3  5  2  0  0  0  0
  5  6  1  0  0  0  0
  6  7  1  0  0  0  0
  7  8  4  0  0  0  0
  8  9  4  0  0  0  0
  9 10  4  0  0  0  0
 10 11  4  0  0  0  0
 11 12  1  0  0  0  0
 11 13  4  0  0  0  0
  7 13  4  0  0  0  0
  5 14  1  0  0  0  0
 14 15  2  0  0  0  0
 14 16  1  0  0  0  0
 16 17  4  0  0  0  0
 17 18  4  0  0  0  0
 18 19  4  0  0  0  0
 19 20  4  0  0  0  0
 20 21  4  0  0  0  0
 16 21  4  0  0  0  0
  2 21  1  0  0  0  0
M  END
> <IC50(uM)>
0.911

> <Outcome>
1.0

> <BindingDB ID>
51282870

> <BindingDB MonomerID>
50523232

> <BindingDB Ligand Name>
CHEMBL4457147

> <Curation/DataSource>
ChEMBL

> <Article DOI>
10.1016/j.ejmech.2019.02.018

> <PMID>
30776695

> <Patent Number>
?

> <Authors>
Calil, FA; David, JS; Chiappetta, ERC; Fumagalli, F; Mello, RB; Leite, FHA; Castilho, MS; Emery, FS; Nonato, MC

> <Link to Ligand in BindingDB>
http://www.bindingdb.org/bind/chemsearch/marvin/MolStructure.jsp?monomerid=50523232

> <Link to Ligand-Target Pair in BindingDB>
http://www.bindingdb.org/jsp/dbsearch/PrimarySearch_ki.jsp?energyterm=kJ/mole&tag=r21&monomerid=50523232&enzyme=Dihydroorotate+dehydrogenase&column=ki&startPg=0&Increment=50&submit=Search

> <PubChem CID>
101593774

> <PubChem SID>
440731814

$$$$

  Mrv2115 07222212352D          

 23 25  0  0  0  0            999 V2000
   -0.7145    1.2375    0.0000 C   0  0  0  0  0  0  0  0  0  0  0  0
    0.0000    0.8250    0.0000 C   0  0  0  0  0  0  0  0  0  0  0  0
    0.0000   -0.0000    0.0000 O   0  0  0  0  0  0  0  0  0  0  0  0
    0.7145   -0.4125    0.0000 C   0  0  0  0  0  0  0  0  0  0  0  0
    1.4289   -0.0000    0.0000 O   0  0  0  0  0  0  0  0  0  0  0  0
    0.7145   -1.2375    0.0000 C   0  0  0  0  0  0  0  0  0  0  0  0
    1.3819   -1.7224    0.0000 S   0  0  0  0  0  0  0  0  0  0  0  0
    1.1270   -2.5070    0.0000 C   0  0  0  0  0  0  0  0  0  0  0  0
    1.6119   -3.1745    0.0000 N   0  0  0  0  0  0  0  0  0  0  0  0
    1.2763   -3.9282    0.0000 C   0  0  0  0  0  0  0  0  0  0  0  0
    1.7613   -4.5956    0.0000 C   0  0  0  0  0  0  0  0  0  0  0  0
    1.4257   -5.3493    0.0000 C   0  0  0  0  0  0  0  0  0  0  0  0
    0.6052   -5.4355    0.0000 C   0  0  0  0  0  0  0  0  0  0  0  0
    0.1203   -4.7681    0.0000 C   0  0  0  0  0  0  0  0  0  0  0  0
    0.4559   -4.0144    0.0000 C   0  0  0  0  0  0  0  0  0  0  0  0
    0.3020   -2.5070    0.0000 N   0  0  0  0  0  0  0  0  0  0  0  0
    0.0470   -1.7224    0.0000 C   0  0  0  0  0  0  0  0  0  0  0  0
   -0.7376   -1.4675    0.0000 C   0  0  0  0  0  0  0  0  0  0  0  0
   -1.3507   -2.0195    0.0000 C   0  0  0  0  0  0  0  0  0  0  0  0
   -2.1353   -1.7646    0.0000 C   0  0  0  0  0  0  0  0  0  0  0  0
   -2.3068   -0.9576    0.0000 C   0  0  0  0  0  0  0  0  0  0  0  0
   -1.6937   -0.4056    0.0000 C   0  0  0  0  0  0  0  0  0  0  0  0
   -0.9091   -0.6605    0.0000 C   0  0  0  0  0  0  0  0  0  0  0  0
  1  2  1  0  0  0  0
  2  3  1  0  0  0  0
  3  4  1  0  0  0  0
  4  5  2  0  0  0  0
  4  6  1  0  0  0  0
  6  7  4  0  0  0  0
  7  8  4  0  0  0  0
  8  9  1  0  0  0  0
  9 10  1  0  0  0  0
 10 11  4  0  0  0  0
 11 12  4  0  0  0  0
 12 13  4  0  0  0  0
 13 14  4  0  0  0  0
 14 15  4  0  0  0  0
 10 15  4  0  0  0  0
  8 16  4  0  0  0  0
 16 17  4  0  0  0  0
  6 17  4  0  0  0  0
 17 18  1  0  0  0  0
 18 19  4  0  0  0  0
 19 20  4  0  0  0  0
 20 21  4  0  0  0  0
 21 22  4  0  0  0  0
 22 23  4  0  0  0  0
 18 23  4  0  0  0  0
M  END
> <IC50(uM)>
0.784

> <Outcome>
1.0

> <BindingDB ID>
50312268

> <BindingDB MonomerID>
50071606

> <BindingDB Ligand Name>
CHEMBL3410597

> <Curation/DataSource>
ChEMBL

> <Article DOI>
10.1021/jm501127s

> <PMID>
25580811

> <Patent Number>
?

> <Authors>
Zhu, J; Han, L; Diao, Y; Ren, X; Xu, M; Xu, L; Li, S; Li, Q; Dong, D; Huang, J; Liu, X; Zhao, Z; Wang, R; Zhu, L; Xu, Y; Qian, X; Li, H

> <Link to Ligand in BindingDB>
http://www.bindingdb.org/bind/chemsearch/marvin/MolStructure.jsp?monomerid=50071606

> <Link to Ligand-Target Pair in BindingDB>
http://www.bindingdb.org/jsp/dbsearch/PrimarySearch_ki.jsp?energyterm=kJ/mole&tag=r21&monomerid=50071606&enzyme=Dihydroorotate+dehydrogenase&column=ki&startPg=0&Increment=50&submit=Search

> <PubChem CID>
10853437

> <PubChem SID>
313072553

$$$$

  Mrv2115 07222212352D          

 36 40  0  0  0  0            999 V2000
   -1.8659    1.4455    0.0000 C   0  0  0  0  0  0  0  0  0  0  0  0
   -2.6909    1.4455    0.0000 C   0  0  0  0  0  0  0  0  0  0  0  0
   -3.1034    0.7310    0.0000 O   0  0  0  0  0  0  0  0  0  0  0  0
   -2.6909    0.0165    0.0000 C   0  0  0  0  0  0  0  0  0  0  0  0
   -1.8659    0.0165    0.0000 C   0  0  0  0  0  0  0  0  0  0  0  0
   -1.4534   -0.6979    0.0000 C   0  0  0  0  0  0  0  0  0  0  0  0
   -0.6284   -0.6979    0.0000 N   0  0  0  0  0  0  0  0  0  0  0  0
   -0.1435   -1.3654    0.0000 N   0  0  0  0  0  0  0  0  0  0  0  0
    0.6411   -1.1104    0.0000 C   0  0  0  0  0  0  0  0  0  0  0  0
    0.6411   -0.2854    0.0000 N   0  0  0  0  0  0  0  0  0  0  0  0
   -0.1435   -0.0305    0.0000 C   0  0  0  0  0  0  0  0  0  0  0  0
   -0.3984    0.7541    0.0000 O   0  0  0  0  0  0  0  0  0  0  0  0
    1.3556    0.1271    0.0000 C   0  0  0  0  0  0  0  0  0  0  0  0
    2.0701   -0.2854    0.0000 C   0  0  0  0  0  0  0  0  0  0  0  0
    2.0701   -1.1104    0.0000 C   0  0  0  0  0  0  0  0  0  0  0  0
    1.3556   -1.5229    0.0000 C   0  0  0  0  0  0  0  0  0  0  0  0
   -1.8659   -1.4124    0.0000 C   0  0  0  0  0  0  0  0  0  0  0  0
   -1.4534   -2.1269    0.0000 F   0  0  0  0  0  0  0  0  0  0  0  0
   -2.6909   -1.4124    0.0000 C   0  0  0  0  0  0  0  0  0  0  0  0
   -3.1034   -0.6979    0.0000 C   0  0  0  0  0  0  0  0  0  0  0  0
   -3.9284   -0.6979    0.0000 C   0  0  0  0  0  0  0  0  0  0  0  0
   -4.3409    0.0165    0.0000 O   0  0  0  0  0  0  0  0  0  0  0  0
   -4.3409   -1.4124    0.0000 N   0  0  0  0  0  0  0  0  0  0  0  0
   -3.9284   -2.1269    0.0000 C   0  0  0  0  0  0  0  0  0  0  0  0
   -3.1034   -2.1269    0.0000 C   0  0  0  0  0  0  0  0  0  0  0  0
   -2.6909   -2.8414    0.0000 C   0  0  0  0  0  0  0  0  0  0  0  0
   -3.1034   -3.5558    0.0000 N   0  0  0  0  0  0  0  0  0  0  0  0
   -2.6909   -4.2703    0.0000 C   0  0  0  0  0  0  0  0  0  0  0  0
   -3.9284   -3.5558    0.0000 C   0  0  0  0  0  0  0  0  0  0  0  0
   -4.3409   -2.8414    0.0000 C   0  0  0  0  0  0  0  0  0  0  0  0
   -3.1034    2.1599    0.0000 C   0  0  0  0  0  0  0  0  0  0  0  0
   -3.9284    2.1599    0.0000 C   0  0  0  0  0  0  0  0  0  0  0  0
   -4.3409    2.8744    0.0000 C   0  0  0  0  0  0  0  0  0  0  0  0
   -3.9284    3.5889    0.0000 C   0  0  0  0  0  0  0  0  0  0  0  0
   -3.1034    3.5889    0.0000 C   0  0  0  0  0  0  0  0  0  0  0  0
   -2.6909    2.8744    0.0000 C   0  0  0  0  0  0  0  0  0  0  0  0
  1  2  1  0  0  0  0
  2  3  1  0  0  0  0
  3  4  1  0  0  0  0
  4  5  4  0  0  0  0
  5  6  4  0  0  0  0
  6  7  1  0  0  0  0
  7  8  4  0  0  0  0
  8  9  4  0  0  0  0
  9 10  4  0  0  0  0
 10 11  4  0  0  0  0
  7 11  4  0  0  0  0
 11 12  2  0  0  0  0
 10 13  1  0  0  0  0
 13 14  1  0  0  0  0
 14 15  1  0  0  0  0
 15 16  1  0  0  0  0
  9 16  1  0  0  0  0
  6 17  4  0  0  0  0
 17 18  1  0  0  0  0
 17 19  4  0  0  0  0
 19 20  4  0  0  0  0
  4 20  4  0  0  0  0
 20 21  1  0  0  0  0
 21 22  2  0  0  0  0
 21 23  1  0  0  0  0
 23 24  1  0  0  0  0
 24 25  1  0  0  0  0
 25 26  1  0  0  0  0
 26 27  1  0  0  0  0
 27 28  1  0  0  0  0
 27 29  1  0  0  0  0
 29 30  1  0  0  0  0
 24 30  1  0  0  0  0
  2 31  1  0  0  0  0
 31 32  1  0  0  0  0
 32 33  1  0  0  0  0
 33 34  1  0  0  0  0
 34 35  1  0  0  0  0
 35 36  1  0  0  0  0
 31 36  1  0  0  0  0
M  END
> <IC50(uM)>
0.75

> <Outcome>
1.0

> <BindingDB ID>
1020567

> <BindingDB MonomerID>
490506

> <BindingDB Ligand Name>
2-[(1S)-1-cyclohexylethoxy]-5-fluoro-N-(1-methylpiperidin-4-yl)-4-(3-oxo-5,6,7,8-tetrahydro-[1,2,4]triazolo[4,3-a]pyridin-2(3H)-yl)benzamide::US10968216, Example 174

> <Curation/DataSource>
US Patent

> <Article DOI>
?

> <PMID>
?

> <Patent Number>
US10968216

> <Authors>
Gradl, SN; Nguyen, D; Eis, K; Gunther, J; Stellfeld, T; Janzer, A; Christian, S; Mueller, T; Sheikh, SE; Zhou, HJ; Zhao, C; Sykes, DB; Ferrara, SJ; Liu, K; Herbert, SA; Merz, C; Niehues, M; Nising, CF; Schafer, M; Zimmermann, K; Knablein, J; Thede, K; Faupel, T

> <Link to Ligand in BindingDB>
http://www.bindingdb.org/bind/chemsearch/marvin/MolStructure.jsp?monomerid=490506

> <Link to Ligand-Target Pair in BindingDB>
http://www.bindingdb.org/jsp/dbsearch/PrimarySearch_ki.jsp?energyterm=kJ/mole&tag=r21&monomerid=490506&enzyme=Dihydroorotate+dehydrogenase&column=ki&startPg=0&Increment=50&submit=Search

> <PubChem CID>
142335877

> <PubChem SID>
447117233

$$$$

  Mrv2115 07222212352D          

 21 24  0  0  0  0            999 V2000
    6.3569    1.1104    0.0000 C   0  0  0  0  0  0  0  0  0  0  0  0
    5.6424    0.6979    0.0000 C   0  0  0  0  0  0  0  0  0  0  0  0
    5.6424   -0.1271    0.0000 C   0  0  0  0  0  0  0  0  0  0  0  0
    4.9279   -0.5396    0.0000 C   0  0  0  0  0  0  0  0  0  0  0  0
    4.9279   -1.3646    0.0000 N   0  0  0  0  0  0  0  0  0  0  0  0
    4.2135   -1.7771    0.0000 C   0  0  0  0  0  0  0  0  0  0  0  0
    4.2135   -2.6021    0.0000 C   0  0  0  0  0  0  0  0  0  0  0  0
    3.4990   -3.0146    0.0000 C   0  0  0  0  0  0  0  0  0  0  0  0
    2.7845   -2.6021    0.0000 C   0  0  0  0  0  0  0  0  0  0  0  0
    2.0701   -3.0146    0.0000 C   0  0  0  0  0  0  0  0  0  0  0  0
    1.3556   -2.6021    0.0000 C   0  0  0  0  0  0  0  0  0  0  0  0
    1.3556   -1.7771    0.0000 C   0  0  0  0  0  0  0  0  0  0  0  0
    2.0701   -1.3646    0.0000 C   0  0  0  0  0  0  0  0  0  0  0  0
    2.7845   -1.7771    0.0000 C   0  0  0  0  0  0  0  0  0  0  0  0
    3.4990   -1.3646    0.0000 C   0  0  0  0  0  0  0  0  0  0  0  0
    4.2135   -0.1271    0.0000 N   0  0  0  0  0  0  0  0  0  0  0  0
    3.4288   -0.3820    0.0000 N   0  0  0  0  0  0  0  0  0  0  0  0
    2.9439    0.2854    0.0000 C   0  0  0  0  0  0  0  0  0  0  0  0
    3.4288    0.9529    0.0000 N   0  0  0  0  0  0  0  0  0  0  0  0
    4.2135    0.6979    0.0000 C   0  0  0  0  0  0  0  0  0  0  0  0
    4.9279    1.1104    0.0000 N   0  0  0  0  0  0  0  0  0  0  0  0
  1  2  1  0  0  0  0
  2  3  4  0  0  0  0
  3  4  4  0  0  0  0
  4  5  1  0  0  0  0
  5  6  1  0  0  0  0
  6  7  4  0  0  0  0
  7  8  4  0  0  0  0
  8  9  4  0  0  0  0
  9 10  4  0  0  0  0
 10 11  4  0  0  0  0
 11 12  4  0  0  0  0
 12 13  4  0  0  0  0
 13 14  4  0  0  0  0
  9 14  4  0  0  0  0
 14 15  4  0  0  0  0
  6 15  4  0  0  0  0
  4 16  4  0  0  0  0
 16 17  4  0  0  0  0
 17 18  4  0  0  0  0
 18 19  4  0  0  0  0
 19 20  4  0  0  0  0
 16 20  4  0  0  0  0
 20 21  4  0  0  0  0
  2 21  4  0  0  0  0
M  END
> <IC50(uM)>
200.0

> <Outcome>
0.0

> <BindingDB ID>
52442; 51327348

> <BindingDB MonomerID>
24400

> <BindingDB Ligand Name>
5-methyl-N-(naphthalen-2-yl)-[1,2,4]triazolo[1,5-a]pyrimidin-7-amine::JMC521864 Compund DSM1::Triazolopyrimidine-Based Compound, 7

> <Curation/DataSource>
Curated from the literature by BindingDB; ChEMBL

> <Article DOI>
10.1021/jm801343r; 10.1016/j.ejmech.2019.01.027

> <PMID>
19296651; 30703745

> <Patent Number>
?

> <Authors>
Gujjar, R; Marwaha, A; El Mazouni, F; White, J; White, KL; Creason, S; Shackleford, DM; Baldwin, J; Charman, WN; Buckner, FS; Charman, S; Rathod, PK; Phillips, MA; Oukoloff, K; Lucero, B; Francisco, KR; Brunden, KR; Ballatore, C

> <Link to Ligand in BindingDB>
http://www.bindingdb.org/bind/chemsearch/marvin/MolStructure.jsp?monomerid=24400

> <Link to Ligand-Target Pair in BindingDB>
http://www.bindingdb.org/jsp/dbsearch/PrimarySearch_ki.jsp?energyterm=kJ/mole&tag=r21&monomerid=24400&enzyme=Dihydroorotate+Dehydrogenase+%28DHODH%29&column=ki&startPg=0&Increment=50&submit=Search; http://www.bindingdb.org/jsp/dbsearch/PrimarySearch_ki.jsp?energyterm=kJ/mole&tag=r21&monomerid=24400&enzyme=Dihydroorotate+dehydrogenase&column=ki&startPg=0&Increment=50&submit=Search

> <PubChem CID>
660996

> <PubChem SID>
53786396

$$$$

  Mrv2115 07222212352D          

 21 24  0  0  0  0            999 V2000
    1.9457   -4.4410    0.0000 O   0  0  0  0  0  0  0  0  0  0  0  0
    1.1387   -4.2695    0.0000 C   0  0  0  0  0  0  0  0  0  0  0  0
    0.5867   -4.8826    0.0000 N   0  0  0  0  0  0  0  0  0  0  0  0
    0.8416   -5.6672    0.0000 C   0  0  0  0  0  0  0  0  0  0  0  0
    1.5767   -6.0418    0.0000 C   0  0  0  0  0  0  0  0  0  0  0  0
    1.2022   -6.7768    0.0000 C   0  0  0  0  0  0  0  0  0  0  0  0
    0.4671   -6.4023    0.0000 C   0  0  0  0  0  0  0  0  0  0  0  0
    0.8838   -3.4849    0.0000 C   0  0  0  0  0  0  0  0  0  0  0  0
    0.0992   -3.2299    0.0000 C   0  0  0  0  0  0  0  0  0  0  0  0
    0.0992   -2.4049    0.0000 C   0  0  0  0  0  0  0  0  0  0  0  0
    0.8838   -2.1500    0.0000 C   0  0  0  0  0  0  0  0  0  0  0  0
    1.1387   -1.3654    0.0000 N   0  0  0  0  0  0  0  0  0  0  0  0
    0.6538   -0.6979    0.0000 C   0  0  0  0  0  0  0  0  0  0  0  0
    1.1387   -0.0305    0.0000 N   0  0  0  0  0  0  0  0  0  0  0  0
    1.9233   -0.2854    0.0000 C   0  0  0  0  0  0  0  0  0  0  0  0
    2.6378    0.1271    0.0000 C   0  0  0  0  0  0  0  0  0  0  0  0
    3.3523   -0.2854    0.0000 C   0  0  0  0  0  0  0  0  0  0  0  0
    3.3523   -1.1104    0.0000 C   0  0  0  0  0  0  0  0  0  0  0  0
    2.6378   -1.5229    0.0000 C   0  0  0  0  0  0  0  0  0  0  0  0
    1.9233   -1.1104    0.0000 C   0  0  0  0  0  0  0  0  0  0  0  0
    1.3687   -2.8174    0.0000 S   0  0  0  0  0  0  0  0  0  0  0  0
  1  2  2  0  0  0  0
  2  3  1  0  0  0  0
  3  4  1  0  0  0  0
  4  5  1  0  0  0  0
  5  6  1  0  0  0  0
  6  7  1  0  0  0  0
  4  7  1  0  0  0  0
  2  8  1  0  0  0  0
  8  9  4  0  0  0  0
  9 10  4  0  0  0  0
 10 11  4  0  0  0  0
 11 12  1  0  0  0  0
 12 13  4  0  0  0  0
 13 14  4  0  0  0  0
 14 15  4  0  0  0  0
 15 16  4  0  0  0  0
 16 17  4  0  0  0  0
 17 18  4  0  0  0  0
 18 19  4  0  0  0  0
 19 20  4  0  0  0  0
 15 20  4  0  0  0  0
 12 20  4  0  0  0  0
 11 21  4  0  0  0  0
  8 21  4  0  0  0  0
M  END
> <IC50(uM)>
30.0

> <Outcome>
0.0

> <BindingDB ID>
50924661

> <BindingDB MonomerID>
50379143

> <BindingDB Ligand Name>
CHEMBL2012825::US8703811, 38

> <Curation/DataSource>
ChEMBL

> <Article DOI>
10.1021/ml200143c

> <PMID>
24900364

> <Patent Number>
?

> <Authors>
Skerlj, RT; Bastos, CM; Booker, ML; Kramer, ML; Barker, RH; Celatka, CA; Munoz, B; Sidhu, AB; Cortese, JF; Wittlin, S; Papastogiannidis, P; Angulo-Barturen, I; Jimenez-Diaz, MB; Sybertz, E

> <Link to Ligand in BindingDB>
http://www.bindingdb.org/bind/chemsearch/marvin/MolStructure.jsp?monomerid=50379143

> <Link to Ligand-Target Pair in BindingDB>
http://www.bindingdb.org/jsp/dbsearch/PrimarySearch_ki.jsp?energyterm=kJ/mole&tag=r21&monomerid=50379143&enzyme=Dihydroorotate+dehydrogenase&column=ki&startPg=0&Increment=50&submit=Search

> <PubChem CID>
58284878

> <PubChem SID>
160858226

$$$$

  Mrv2115 07222212352D          

 36 39  0  0  0  0            999 V2000
   -2.7512    0.7634    0.0000 C   0  0  0  0  0  0  0  0  0  0  0  0
   -2.0367    1.1759    0.0000 C   0  0  0  0  0  0  0  0  0  0  0  0
   -2.0367    2.0009    0.0000 C   0  0  0  0  0  0  0  0  0  0  0  0
   -1.3222    2.4134    0.0000 C   0  0  0  0  0  0  0  0  0  0  0  0
   -0.6078    2.0009    0.0000 C   0  0  0  0  0  0  0  0  0  0  0  0
   -0.6078    1.1759    0.0000 C   0  0  0  0  0  0  0  0  0  0  0  0
   -1.3222    0.7634    0.0000 C   0  0  0  0  0  0  0  0  0  0  0  0
   -1.3222   -0.0616    0.0000 N   0  0  0  0  0  0  0  0  0  0  0  0
   -0.6078   -0.4741    0.0000 C   0  0  0  0  0  0  0  0  0  0  0  0
    0.1067   -0.0616    0.0000 O   0  0  0  0  0  0  0  0  0  0  0  0
   -0.6078   -1.2991    0.0000 C   0  0  0  0  0  0  0  0  0  0  0  0
    0.1067   -1.7116    0.0000 C   0  0  0  0  0  0  0  0  0  0  0  0
    0.1067   -2.5366    0.0000 C   0  0  0  0  0  0  0  0  0  0  0  0
    0.8212   -2.9491    0.0000 F   0  0  0  0  0  0  0  0  0  0  0  0
   -0.6078   -2.9491    0.0000 C   0  0  0  0  0  0  0  0  0  0  0  0
   -0.6078   -3.7741    0.0000 N   0  0  0  0  0  0  0  0  0  0  0  0
    0.0597   -4.2590    0.0000 N   0  0  0  0  0  0  0  0  0  0  0  0
   -0.1953   -5.0437    0.0000 C   0  0  0  0  0  0  0  0  0  0  0  0
    0.2897   -5.7111    0.0000 C   0  0  0  0  0  0  0  0  0  0  0  0
   -1.0203   -5.0437    0.0000 N   0  0  0  0  0  0  0  0  0  0  0  0
   -1.5052   -5.7111    0.0000 C   0  0  0  0  0  0  0  0  0  0  0  0
   -1.1696   -6.4648    0.0000 C   0  0  0  0  0  0  0  0  0  0  0  0
   -2.3257   -5.6249    0.0000 C   0  0  0  0  0  0  0  0  0  0  0  0
   -1.2752   -4.2590    0.0000 C   0  0  0  0  0  0  0  0  0  0  0  0
   -2.0598   -4.0041    0.0000 O   0  0  0  0  0  0  0  0  0  0  0  0
   -1.3222   -2.5366    0.0000 C   0  0  0  0  0  0  0  0  0  0  0  0
   -1.3222   -1.7116    0.0000 C   0  0  0  0  0  0  0  0  0  0  0  0
   -2.0367   -1.2991    0.0000 O   0  0  0  0  0  0  0  0  0  0  0  0
   -2.7512   -1.7116    0.0000 C   0  0  0  0  0  0  0  0  0  0  0  0
   -2.7512   -2.5366    0.0000 C   0  0  0  0  0  0  0  0  0  0  0  0
   -3.4656   -1.2991    0.0000 C   0  0  0  0  0  0  0  0  0  0  0  0
   -4.1801   -1.7116    0.0000 C   0  0  0  0  0  0  0  0  0  0  0  0
   -4.8946   -1.2991    0.0000 C   0  0  0  0  0  0  0  0  0  0  0  0
   -4.8946   -0.4741    0.0000 C   0  0  0  0  0  0  0  0  0  0  0  0
   -4.1801   -0.0616    0.0000 C   0  0  0  0  0  0  0  0  0  0  0  0
   -3.4656   -0.4741    0.0000 C   0  0  0  0  0  0  0  0  0  0  0  0
  1  2  1  0  0  0  0
  2  3  4  0  0  0  0
  3  4  4  0  0  0  0
  4  5  4  0  0  0  0
  5  6  4  0  0  0  0
  6  7  4  0  0  0  0
  2  7  4  0  0  0  0
  7  8  1  0  0  0  0
  8  9  1  0  0  0  0
  9 10  2  0  0  0  0
  9 11  1  0  0  0  0
 11 12  4  0  0  0  0
 12 13  4  0  0  0  0
 13 14  1  0  0  0  0
 13 15  4  0  0  0  0
 15 16  1  0  0  0  0
 16 17  4  0  0  0  0
 17 18  4  0  0  0  0
 18 19  1  0  0  0  0
 18 20  4  0  0  0  0
 20 21  1  0  0  0  0
 21 22  1  0  0  0  0
 21 23  1  0  0  0  0
 20 24  4  0  0  0  0
 16 24  4  0  0  0  0
 24 25  2  0  0  0  0
 15 26  4  0  0  0  0
 26 27  4  0  0  0  0
 11 27  4  0  0  0  0
 27 28  1  0  0  0  0
 28 29  1  0  0  0  0
 29 30  1  0  0  0  0
 29 31  1  0  0  0  0
 31 32  4  0  0  0  0
 32 33  4  0  0  0  0
 33 34  4  0  0  0  0
 34 35  4  0  0  0  0
 35 36  4  0  0  0  0
 31 36  4  0  0  0  0
M  END
> <IC50(uM)>
0.0805

> <Outcome>
1.0

> <BindingDB ID>
1098604; 972450; 972449; 1098603

> <BindingDB MonomerID>
470348

> <BindingDB Ligand Name>
5-fluoro-4-[3-methyl-5-oxo-4-(propan-2-yl)-4,5-dihydro-1H-1,2,4-triazol-1-yl]-N-(2-methyl-phenyl)-2-[(1S)-1-phenylethoxy]benzamide::US10815215, Example 10::US11130745, Example 10; 5-fluoro-4-[3-methyl-5-oxo-4-(propan-2-yl)-4,5-dihydro-1H-1,2,4-triazol-1-yl]-N-(2-methyl-phenyl)-2-[(1S)-1-phenylethoxy]benzamide::US10815215, Example 10

> <Curation/DataSource>
US Patent

> <Article DOI>
?

> <PMID>
?

> <Patent Number>
US11130745; US10815215

> <Authors>
Gradl, SN; Nguyen, D; Eis, K; Gunther, J; Stellfeld, T; Janzer, A; Christian, S; Muller, T; Sheikh, SE; Sykes, DB; Ferrara, SJ; Krober, M; Merz, C; Niehues, M; Schafer, M; Zimmermann, K; Nising, CF; Gradl, SN; Nguyen, D; Eis, K; Gunther, J; Stellfeld, T; Janzer, A; Christian, S; Muller, T; Sheikh, SE; Zhou, HJ; Zhao, C; Sykes, DB; Ferrara, SJ; Liu, K; Krober, M; Merz, C; Niehues, M; Schafer, M; Zimmermann, K; Nising, CF

> <Link to Ligand in BindingDB>
http://www.bindingdb.org/bind/chemsearch/marvin/MolStructure.jsp?monomerid=470348

> <Link to Ligand-Target Pair in BindingDB>
http://www.bindingdb.org/jsp/dbsearch/PrimarySearch_ki.jsp?energyterm=kJ/mole&tag=r21&monomerid=470348&enzyme=Dihydroorotate+dehydrogenase&column=ki&startPg=0&Increment=50&submit=Search

> <PubChem CID>
142335810

> <PubChem SID>
441609525

$$$$

  Mrv2115 07222212352D          

 27 30  0  0  0  0            999 V2000
    7.6799   -2.6490    0.0000 C   0  0  0  0  0  0  0  0  0  0  0  0
    7.0124   -2.1640    0.0000 C   0  0  0  0  0  0  0  0  0  0  0  0
    6.2587   -2.4996    0.0000 O   0  0  0  0  0  0  0  0  0  0  0  0
    5.5913   -2.0147    0.0000 C   0  0  0  0  0  0  0  0  0  0  0  0
    4.8376   -2.3502    0.0000 O   0  0  0  0  0  0  0  0  0  0  0  0
    5.6775   -1.1942    0.0000 C   0  0  0  0  0  0  0  0  0  0  0  0
    6.3920   -0.7817    0.0000 C   0  0  0  0  0  0  0  0  0  0  0  0
    7.1457   -1.1173    0.0000 O   0  0  0  0  0  0  0  0  0  0  0  0
    6.2205    0.0253    0.0000 C   0  0  0  0  0  0  0  0  0  0  0  0
    5.4000    0.1115    0.0000 S   0  0  0  0  0  0  0  0  0  0  0  0
    5.0645   -0.6422    0.0000 C   0  0  0  0  0  0  0  0  0  0  0  0
    4.2575   -0.8137    0.0000 N   0  0  0  0  0  0  0  0  0  0  0  0
    3.7054   -0.2006    0.0000 C   0  0  0  0  0  0  0  0  0  0  0  0
    3.9604    0.5840    0.0000 C   0  0  0  0  0  0  0  0  0  0  0  0
    3.4084    1.1971    0.0000 C   0  0  0  0  0  0  0  0  0  0  0  0
    2.6014    1.0256    0.0000 C   0  0  0  0  0  0  0  0  0  0  0  0
    2.3464    0.2410    0.0000 C   0  0  0  0  0  0  0  0  0  0  0  0
    2.8985   -0.3721    0.0000 C   0  0  0  0  0  0  0  0  0  0  0  0
    1.5214    0.2410    0.0000 C   0  0  0  0  0  0  0  0  0  0  0  0
    0.9694   -0.3721    0.0000 C   0  0  0  0  0  0  0  0  0  0  0  0
    0.1624   -0.2006    0.0000 C   0  0  0  0  0  0  0  0  0  0  0  0
   -0.0925    0.5840    0.0000 C   0  0  0  0  0  0  0  0  0  0  0  0
    0.4595    1.1971    0.0000 C   0  0  0  0  0  0  0  0  0  0  0  0
    1.2665    1.0256    0.0000 C   0  0  0  0  0  0  0  0  0  0  0  0
    1.9339    1.5105    0.0000 N   0  0  0  0  0  0  0  0  0  0  0  0
    1.9339    2.3355    0.0000 C   0  0  0  0  0  0  0  0  0  0  0  0
    2.6484    2.7480    0.0000 C   0  0  0  0  0  0  0  0  0  0  0  0
  1  2  1  0  0  0  0
  2  3  1  0  0  0  0
  3  4  1  0  0  0  0
  4  5  2  0  0  0  0
  4  6  1  0  0  0  0
  6  7  4  0  0  0  0
  7  8  1  0  0  0  0
  7  9  4  0  0  0  0
  9 10  4  0  0  0  0
 10 11  4  0  0  0  0
  6 11  4  0  0  0  0
 11 12  1  0  0  0  0
 12 13  1  0  0  0  0
 13 14  4  0  0  0  0
 14 15  4  0  0  0  0
 15 16  4  0  0  0  0
 16 17  4  0  0  0  0
 17 18  4  0  0  0  0
 13 18  4  0  0  0  0
 17 19  4  0  0  0  0
 19 20  4  0  0  0  0
 20 21  4  0  0  0  0
 21 22  4  0  0  0  0
 22 23  4  0  0  0  0
 23 24  4  0  0  0  0
 19 24  4  0  0  0  0
 24 25  4  0  0  0  0
 16 25  4  0  0  0  0
 25 26  1  0  0  0  0
 26 27  1  0  0  0  0
M  END
> <IC50(uM)>
50.0

> <Outcome>
0.0

> <BindingDB ID>
51079167

> <BindingDB MonomerID>
50441275

> <BindingDB Ligand Name>
CHEMBL2431518

> <Curation/DataSource>
ChEMBL

> <Article DOI>
10.1021/jm400938g

> <PMID>
24073986

> <Patent Number>
?

> <Authors>
Xu, M; Zhu, J; Diao, Y; Zhou, H; Ren, X; Sun, D; Huang, J; Han, D; Zhao, Z; Zhu, L; Xu, Y; Li, H

> <Link to Ligand in BindingDB>
http://www.bindingdb.org/bind/chemsearch/marvin/MolStructure.jsp?monomerid=50441275

> <Link to Ligand-Target Pair in BindingDB>
http://www.bindingdb.org/jsp/dbsearch/PrimarySearch_ki.jsp?energyterm=kJ/mole&tag=r21&monomerid=50441275&enzyme=Dihydroorotate+dehydrogenase&column=ki&startPg=0&Increment=50&submit=Search

> <PubChem CID>
91898836

> <PubChem SID>
175453592

$$$$

  Mrv2115 07222212352D          

 36 39  0  0  0  0            999 V2000
   -0.6284    2.1599    0.0000 C   0  0  0  0  0  0  0  0  0  0  0  0
   -1.4534    2.1599    0.0000 C   0  0  0  0  0  0  0  0  0  0  0  0
   -1.8659    1.4455    0.0000 C   0  0  0  0  0  0  0  0  0  0  0  0
   -2.6909    1.4455    0.0000 C   0  0  0  0  0  0  0  0  0  0  0  0
   -3.1034    2.1599    0.0000 C   0  0  0  0  0  0  0  0  0  0  0  0
   -3.1034    0.7310    0.0000 O   0  0  0  0  0  0  0  0  0  0  0  0
   -2.6909    0.0165    0.0000 C   0  0  0  0  0  0  0  0  0  0  0  0
   -1.8659    0.0165    0.0000 C   0  0  0  0  0  0  0  0  0  0  0  0
   -1.4534   -0.6979    0.0000 C   0  0  0  0  0  0  0  0  0  0  0  0
   -0.6284   -0.6979    0.0000 N   0  0  0  0  0  0  0  0  0  0  0  0
   -0.1435   -1.3654    0.0000 N   0  0  0  0  0  0  0  0  0  0  0  0
    0.6411   -1.1104    0.0000 C   0  0  0  0  0  0  0  0  0  0  0  0
    0.6411   -0.2854    0.0000 N   0  0  0  0  0  0  0  0  0  0  0  0
   -0.1435   -0.0305    0.0000 C   0  0  0  0  0  0  0  0  0  0  0  0
   -0.3984    0.7541    0.0000 O   0  0  0  0  0  0  0  0  0  0  0  0
    1.3556    0.1271    0.0000 C   0  0  0  0  0  0  0  0  0  0  0  0
    2.0701   -0.2854    0.0000 C   0  0  0  0  0  0  0  0  0  0  0  0
    2.0701   -1.1104    0.0000 C   0  0  0  0  0  0  0  0  0  0  0  0
    1.3556   -1.5229    0.0000 C   0  0  0  0  0  0  0  0  0  0  0  0
   -1.8659   -1.4124    0.0000 C   0  0  0  0  0  0  0  0  0  0  0  0
   -1.4534   -2.1269    0.0000 F   0  0  0  0  0  0  0  0  0  0  0  0
   -2.6909   -1.4124    0.0000 C   0  0  0  0  0  0  0  0  0  0  0  0
   -3.1034   -0.6979    0.0000 C   0  0  0  0  0  0  0  0  0  0  0  0
   -3.9284   -0.6979    0.0000 C   0  0  0  0  0  0  0  0  0  0  0  0
   -4.3409    0.0165    0.0000 O   0  0  0  0  0  0  0  0  0  0  0  0
   -4.3409   -1.4124    0.0000 N   0  0  0  0  0  0  0  0  0  0  0  0
   -3.9284   -2.1269    0.0000 C   0  0  0  0  0  0  0  0  0  0  0  0
   -3.1034   -2.1269    0.0000 C   0  0  0  0  0  0  0  0  0  0  0  0
   -2.6909   -2.8414    0.0000 C   0  0  0  0  0  0  0  0  0  0  0  0
   -3.1034   -3.5558    0.0000 N   0  0  0  0  0  0  0  0  0  0  0  0
   -2.6909   -4.2703    0.0000 S   0  0  0  0  0  0  0  0  0  0  0  0
   -2.2784   -4.9848    0.0000 C   0  0  0  0  0  0  0  0  0  0  0  0
   -3.4054   -4.6828    0.0000 O   0  0  0  0  0  0  0  0  0  0  0  0
   -1.9765   -3.8578    0.0000 O   0  0  0  0  0  0  0  0  0  0  0  0
   -3.9284   -3.5558    0.0000 C   0  0  0  0  0  0  0  0  0  0  0  0
   -4.3409   -2.8414    0.0000 C   0  0  0  0  0  0  0  0  0  0  0  0
  1  2  1  0  0  0  0
  2  3  1  0  0  0  0
  3  4  1  0  0  0  0
  4  5  1  0  0  0  0
  4  6  1  0  0  0  0
  6  7  1  0  0  0  0
  7  8  4  0  0  0  0
  8  9  4  0  0  0  0
  9 10  1  0  0  0  0
 10 11  4  0  0  0  0
 11 12  4  0  0  0  0
 12 13  4  0  0  0  0
 13 14  4  0  0  0  0
 10 14  4  0  0  0  0
 14 15  2  0  0  0  0
 13 16  1  0  0  0  0
 16 17  1  0  0  0  0
 17 18  1  0  0  0  0
 18 19  1  0  0  0  0
 12 19  1  0  0  0  0
  9 20  4  0  0  0  0
 20 21  1  0  0  0  0
 20 22  4  0  0  0  0
 22 23  4  0  0  0  0
  7 23  4  0  0  0  0
 23 24  1  0  0  0  0
 24 25  2  0  0  0  0
 24 26  1  0  0  0  0
 26 27  1  0  0  0  0
 27 28  1  0  0  0  0
 28 29  1  0  0  0  0
 29 30  1  0  0  0  0
 30 31  1  0  0  0  0
 31 32  1  0  0  0  0
 31 33  2  0  0  0  0
 31 34  2  0  0  0  0
 30 35  1  0  0  0  0
 35 36  1  0  0  0  0
 27 36  1  0  0  0  0
M  END
> <IC50(uM)>
0.85

> <Outcome>
1.0

> <BindingDB ID>
1020397

> <BindingDB MonomerID>
490353

> <BindingDB Ligand Name>
5-fluoro-N-[1-(methylsulfonyl) piperidin-4-yl]-4-(3-oxo-5,6,7,8-tetrahydro[1,2,4]triazolo[4,3-a]-pyridin-2(3H)-yl)-2-[(2S)-pentan-2-yloxy]benzamide::US10968216, Example 21

> <Curation/DataSource>
US Patent

> <Article DOI>
?

> <PMID>
?

> <Patent Number>
US10968216

> <Authors>
Gradl, SN; Nguyen, D; Eis, K; Gunther, J; Stellfeld, T; Janzer, A; Christian, S; Mueller, T; Sheikh, SE; Zhou, HJ; Zhao, C; Sykes, DB; Ferrara, SJ; Liu, K; Herbert, SA; Merz, C; Niehues, M; Nising, CF; Schafer, M; Zimmermann, K; Knablein, J; Thede, K; Faupel, T

> <Link to Ligand in BindingDB>
http://www.bindingdb.org/bind/chemsearch/marvin/MolStructure.jsp?monomerid=490353

> <Link to Ligand-Target Pair in BindingDB>
http://www.bindingdb.org/jsp/dbsearch/PrimarySearch_ki.jsp?energyterm=kJ/mole&tag=r21&monomerid=490353&enzyme=Dihydroorotate+dehydrogenase&column=ki&startPg=0&Increment=50&submit=Search

> <PubChem CID>
134474291

> <PubChem SID>
447117080

$$$$

  Mrv2115 07222212352D          

 26 29  0  0  0  0            999 V2000
    6.8513   -2.4750    0.0000 C   0  0  0  0  0  0  0  0  0  0  0  0
    6.1368   -2.8875    0.0000 C   0  0  0  0  0  0  0  0  0  0  0  0
    6.1368   -3.7125    0.0000 C   0  0  0  0  0  0  0  0  0  0  0  0
    5.4223   -4.1250    0.0000 C   0  0  0  0  0  0  0  0  0  0  0  0
    5.4223   -4.9500    0.0000 N   0  0  0  0  0  0  0  0  0  0  0  0
    6.1368   -5.3625    0.0000 C   0  0  0  0  0  0  0  0  0  0  0  0
    6.8513   -4.9500    0.0000 C   0  0  0  0  0  0  0  0  0  0  0  0
    7.5658   -5.3625    0.0000 C   0  0  0  0  0  0  0  0  0  0  0  0
    7.5658   -6.1875    0.0000 C   0  0  0  0  0  0  0  0  0  0  0  0
    8.2802   -6.6000    0.0000 C   0  0  0  0  0  0  0  0  0  0  0  0
    8.2802   -7.4250    0.0000 C   0  0  0  0  0  0  0  0  0  0  0  0
    7.5658   -7.8375    0.0000 C   0  0  0  0  0  0  0  0  0  0  0  0
    7.5658   -8.6625    0.0000 Br  0  0  0  0  0  0  0  0  0  0  0  0
    6.8513   -7.4250    0.0000 C   0  0  0  0  0  0  0  0  0  0  0  0
    6.8513   -6.6000    0.0000 C   0  0  0  0  0  0  0  0  0  0  0  0
    6.1368   -6.1875    0.0000 C   0  0  0  0  0  0  0  0  0  0  0  0
    4.7079   -3.7125    0.0000 N   0  0  0  0  0  0  0  0  0  0  0  0
    3.9232   -3.9674    0.0000 N   0  0  0  0  0  0  0  0  0  0  0  0
    3.4383   -3.3000    0.0000 C   0  0  0  0  0  0  0  0  0  0  0  0
    2.6133   -3.3000    0.0000 C   0  0  0  0  0  0  0  0  0  0  0  0
    1.7883   -3.3000    0.0000 C   0  0  0  0  0  0  0  0  0  0  0  0
    2.6133   -2.4750    0.0000 F   0  0  0  0  0  0  0  0  0  0  0  0
    2.6133   -4.1250    0.0000 F   0  0  0  0  0  0  0  0  0  0  0  0
    3.9232   -2.6326    0.0000 N   0  0  0  0  0  0  0  0  0  0  0  0
    4.7079   -2.8875    0.0000 C   0  0  0  0  0  0  0  0  0  0  0  0
    5.4223   -2.4750    0.0000 N   0  0  0  0  0  0  0  0  0  0  0  0
  1  2  1  0  0  0  0
  2  3  4  0  0  0  0
  3  4  4  0  0  0  0
  4  5  1  0  0  0  0
  5  6  1  0  0  0  0
  6  7  1  0  0  0  0
  7  8  1  0  0  0  0
  8  9  1  0  0  0  0
  9 10  4  0  0  0  0
 10 11  4  0  0  0  0
 11 12  4  0  0  0  0
 12 13  1  0  0  0  0
 12 14  4  0  0  0  0
 14 15  4  0  0  0  0
  9 15  4  0  0  0  0
 15 16  1  0  0  0  0
  6 16  1  0  0  0  0
  4 17  4  0  0  0  0
 17 18  4  0  0  0  0
 18 19  4  0  0  0  0
 19 20  1  0  0  0  0
 20 21  1  0  0  0  0
 20 22  1  0  0  0  0
 20 23  1  0  0  0  0
 19 24  4  0  0  0  0
 24 25  4  0  0  0  0
 17 25  4  0  0  0  0
 25 26  4  0  0  0  0
  2 26  4  0  0  0  0
M  END
> <IC50(uM)>
100.0

> <Outcome>
0.0

> <BindingDB ID>
51373001; 51373002

> <BindingDB MonomerID>
50555367

> <BindingDB Ligand Name>
CHEMBL4753862

> <Curation/DataSource>
ChEMBL

> <Article DOI>
?

> <PMID>
27127993

> <Patent Number>
?

> <Authors>
Kokkonda, S; Deng, X; White, KL; Coteron, JM; Marco, M; de Las Heras, L; White, J; El Mazouni, F; Tomchick, DR; Manjalanagara, K; Rudra, KR; Chen, G; Morizzi, J; Ryan, E; Kaminsky, W; Leroy, D; Mart??nez-Mart??nez, MS; Jimenez-Diaz, MB; Bazaga, SF; Angulo-Barturen, I; Waterson, D; Burrows, JN; Matthews, D; Charman, SA; Phillips, MA; Rathod, PK

> <Link to Ligand in BindingDB>
http://www.bindingdb.org/bind/chemsearch/marvin/MolStructure.jsp?monomerid=50555367

> <Link to Ligand-Target Pair in BindingDB>
http://www.bindingdb.org/jsp/dbsearch/PrimarySearch_ki.jsp?energyterm=kJ/mole&tag=r21&monomerid=50555367&enzyme=Dihydroorotate+dehydrogenase&column=ki&startPg=0&Increment=50&submit=Search

> <PubChem CID>
162653615

> <PubChem SID>
461694135

$$$$

  Mrv2115 07222212352D          

 27 30  0  0  0  0            999 V2000
    4.0668    2.3479    0.0000 C   0  0  0  0  0  0  0  0  0  0  0  0
    3.3523    1.9354    0.0000 C   0  0  0  0  0  0  0  0  0  0  0  0
    3.3523    1.1104    0.0000 C   0  0  0  0  0  0  0  0  0  0  0  0
    2.6378    0.6979    0.0000 C   0  0  0  0  0  0  0  0  0  0  0  0
    2.6378   -0.1271    0.0000 C   0  0  0  0  0  0  0  0  0  0  0  0
    1.9233   -0.5396    0.0000 O   0  0  0  0  0  0  0  0  0  0  0  0
    3.3523   -0.5396    0.0000 O   0  0  0  0  0  0  0  0  0  0  0  0
    1.9233    1.1104    0.0000 C   0  0  0  0  0  0  0  0  0  0  0  0
    1.1387    0.8555    0.0000 N   0  0  0  0  0  0  0  0  0  0  0  0
    0.6538    1.5229    0.0000 C   0  0  0  0  0  0  0  0  0  0  0  0
   -0.1712    1.5229    0.0000 C   0  0  0  0  0  0  0  0  0  0  0  0
   -0.5837    0.8085    0.0000 C   0  0  0  0  0  0  0  0  0  0  0  0
   -1.4087    0.8085    0.0000 C   0  0  0  0  0  0  0  0  0  0  0  0
   -1.8212    1.5229    0.0000 C   0  0  0  0  0  0  0  0  0  0  0  0
   -2.6462    1.5229    0.0000 C   0  0  0  0  0  0  0  0  0  0  0  0
   -3.0587    0.8085    0.0000 C   0  0  0  0  0  0  0  0  0  0  0  0
   -3.8837    0.8085    0.0000 C   0  0  0  0  0  0  0  0  0  0  0  0
   -4.2962    1.5229    0.0000 C   0  0  0  0  0  0  0  0  0  0  0  0
   -5.1212    1.5229    0.0000 O   0  0  0  0  0  0  0  0  0  0  0  0
   -3.8837    2.2374    0.0000 C   0  0  0  0  0  0  0  0  0  0  0  0
   -4.2962    2.9519    0.0000 O   0  0  0  0  0  0  0  0  0  0  0  0
   -3.0587    2.2374    0.0000 C   0  0  0  0  0  0  0  0  0  0  0  0
   -1.4087    2.2374    0.0000 C   0  0  0  0  0  0  0  0  0  0  0  0
   -0.5837    2.2374    0.0000 C   0  0  0  0  0  0  0  0  0  0  0  0
    1.1387    2.1904    0.0000 N   0  0  0  0  0  0  0  0  0  0  0  0
    1.9233    1.9354    0.0000 C   0  0  0  0  0  0  0  0  0  0  0  0
    2.6378    2.3479    0.0000 C   0  0  0  0  0  0  0  0  0  0  0  0
  1  2  1  0  0  0  0
  2  3  4  0  0  0  0
  3  4  4  0  0  0  0
  4  5  1  0  0  0  0
  5  6  2  0  0  0  0
  5  7  1  0  0  0  0
  4  8  4  0  0  0  0
  8  9  4  0  0  0  0
  9 10  4  0  0  0  0
 10 11  1  0  0  0  0
 11 12  4  0  0  0  0
 12 13  4  0  0  0  0
 13 14  4  0  0  0  0
 14 15  1  0  0  0  0
 15 16  4  0  0  0  0
 16 17  4  0  0  0  0
 17 18  4  0  0  0  0
 18 19  1  0  0  0  0
 18 20  4  0  0  0  0
 20 21  1  0  0  0  0
 20 22  4  0  0  0  0
 15 22  4  0  0  0  0
 14 23  4  0  0  0  0
 23 24  4  0  0  0  0
 11 24  4  0  0  0  0
 10 25  4  0  0  0  0
 25 26  4  0  0  0  0
  8 26  4  0  0  0  0
 26 27  4  0  0  0  0
  2 27  4  0  0  0  0
M  STY  1   1 DAT
M  SAL   1  1   9
M  SDT   1 MRV_IMPLICIT_H                                        
M  SDD   1     0.5304   -0.4125    DR    ALL  0       0  
M  SED   1 IMPL_H1
M  END
> <IC50(uM)>
0.645

> <Outcome>
1.0

> <BindingDB ID>
297793

> <BindingDB MonomerID>
155449

> <BindingDB Ligand Name>
US9006454, I91

> <Curation/DataSource>
US Patent

> <Article DOI>
?

> <PMID>
?

> <Patent Number>
US9006454

> <Authors>
Thunuguntla, SS; Subramanya, H; Kunnam, SR; Sanivaru Vijay, SR; Bingi, C; Kusanur, R; Schwarz, M; Arlt, M

> <Link to Ligand in BindingDB>
http://www.bindingdb.org/bind/chemsearch/marvin/MolStructure.jsp?monomerid=155449

> <Link to Ligand-Target Pair in BindingDB>
http://www.bindingdb.org/jsp/dbsearch/PrimarySearch_ki.jsp?energyterm=kJ/mole&tag=r21&monomerid=155449&enzyme=Dihydroorotate+dehydrogenase&column=ki&startPg=0&Increment=50&submit=Search

> <PubChem CID>
68083817

> <PubChem SID>
253658386

$$$$

  Mrv2115 07222212352D          

 26 29  0  0  0  0            999 V2000
    2.5559   -1.8243    0.0000 O   0  0  0  0  0  0  0  0  0  0  0  0
    2.5559   -2.6493    0.0000 C   0  0  0  0  0  0  0  0  0  0  0  0
    1.8414   -3.0618    0.0000 O   0  0  0  0  0  0  0  0  0  0  0  0
    3.2704   -3.0618    0.0000 C   0  0  0  0  0  0  0  0  0  0  0  0
    3.2704   -3.8868    0.0000 C   0  0  0  0  0  0  0  0  0  0  0  0
    3.9849   -4.2993    0.0000 C   0  0  0  0  0  0  0  0  0  0  0  0
    3.9849   -5.1243    0.0000 C   0  0  0  0  0  0  0  0  0  0  0  0
    4.3974   -5.8388    0.0000 C   0  0  0  0  0  0  0  0  0  0  0  0
    3.5724   -5.8388    0.0000 C   0  0  0  0  0  0  0  0  0  0  0  0
    4.6993   -3.8868    0.0000 C   0  0  0  0  0  0  0  0  0  0  0  0
    4.6993   -3.0618    0.0000 C   0  0  0  0  0  0  0  0  0  0  0  0
    3.9849   -2.6493    0.0000 C   0  0  0  0  0  0  0  0  0  0  0  0
    3.9849   -1.8243    0.0000 N   0  0  0  0  0  0  0  0  0  0  0  0
    4.6993   -1.4118    0.0000 C   0  0  0  0  0  0  0  0  0  0  0  0
    4.6993   -0.5868    0.0000 C   0  0  0  0  0  0  0  0  0  0  0  0
    5.4138   -0.1743    0.0000 C   0  0  0  0  0  0  0  0  0  0  0  0
    6.1283   -0.5868    0.0000 C   0  0  0  0  0  0  0  0  0  0  0  0
    6.8427   -0.1743    0.0000 C   0  0  0  0  0  0  0  0  0  0  0  0
    6.8427    0.6507    0.0000 C   0  0  0  0  0  0  0  0  0  0  0  0
    7.5572    1.0632    0.0000 C   0  0  0  0  0  0  0  0  0  0  0  0
    8.2717    0.6507    0.0000 C   0  0  0  0  0  0  0  0  0  0  0  0
    8.2717   -0.1743    0.0000 C   0  0  0  0  0  0  0  0  0  0  0  0
    7.5572   -0.5868    0.0000 C   0  0  0  0  0  0  0  0  0  0  0  0
    7.5572   -1.4118    0.0000 F   0  0  0  0  0  0  0  0  0  0  0  0
    6.1283   -1.4118    0.0000 N   0  0  0  0  0  0  0  0  0  0  0  0
    5.4138   -1.8243    0.0000 C   0  0  0  0  0  0  0  0  0  0  0  0
  1  2  2  0  0  0  0
  2  3  1  0  0  0  0
  2  4  1  0  0  0  0
  4  5  4  0  0  0  0
  5  6  4  0  0  0  0
  6  7  1  0  0  0  0
  7  8  1  0  0  0  0
  8  9  1  0  0  0  0
  7  9  1  0  0  0  0
  6 10  4  0  0  0  0
 10 11  4  0  0  0  0
 11 12  4  0  0  0  0
  4 12  4  0  0  0  0
 12 13  1  0  0  0  0
 13 14  1  0  0  0  0
 14 15  4  0  0  0  0
 15 16  4  0  0  0  0
 16 17  4  0  0  0  0
 17 18  1  0  0  0  0
 18 19  4  0  0  0  0
 19 20  4  0  0  0  0
 20 21  4  0  0  0  0
 21 22  4  0  0  0  0
 22 23  4  0  0  0  0
 18 23  4  0  0  0  0
 23 24  1  0  0  0  0
 17 25  4  0  0  0  0
 25 26  4  0  0  0  0
 14 26  4  0  0  0  0
M  END
> <IC50(uM)>
0.008

> <Outcome>
1.0

> <BindingDB ID>
220027

> <BindingDB MonomerID>
102497

> <BindingDB Ligand Name>
US8536165, 107

> <Curation/DataSource>
US Patent

> <Article DOI>
?

> <PMID>
?

> <Patent Number>
US8536165

> <Authors>
Castro Palomino Laria, JC; Terricabras Belart, E; Erra Sola, M; Navarro Romero, E; Fonquerna Pou, S; Cardus Figueras, A; Lozoya Toribio, ME

> <Link to Ligand in BindingDB>
http://www.bindingdb.org/bind/chemsearch/marvin/MolStructure.jsp?monomerid=102497

> <Link to Ligand-Target Pair in BindingDB>
http://www.bindingdb.org/jsp/dbsearch/PrimarySearch_ki.jsp?energyterm=kJ/mole&tag=r21&monomerid=102497&enzyme=Dihydroorotate+dehydrogenase&column=ki&startPg=0&Increment=50&submit=Search

> <PubChem CID>
57479015

> <PubChem SID>
172097788

$$$$

  Mrv2115 07222212352D          

 24 26  0  0  0  0            999 V2000
   -2.8579   -4.9500    0.0000 C   0  0  0  0  0  0  0  0  0  0  0  0
   -2.8579   -4.1250    0.0000 C   0  0  0  0  0  0  0  0  0  0  0  0
   -2.1434   -3.7125    0.0000 C   0  0  0  0  0  0  0  0  0  0  0  0
   -2.1434   -2.8875    0.0000 O   0  0  0  0  0  0  0  0  0  0  0  0
   -1.4289   -2.4750    0.0000 C   0  0  0  0  0  0  0  0  0  0  0  0
   -1.4289   -1.6500    0.0000 C   0  0  0  0  0  0  0  0  0  0  0  0
   -0.7145   -1.2375    0.0000 C   0  0  0  0  0  0  0  0  0  0  0  0
    0.0000   -1.6500    0.0000 C   0  0  0  0  0  0  0  0  0  0  0  0
    0.7145   -1.2375    0.0000 C   0  0  0  0  0  0  0  0  0  0  0  0
    0.7145   -0.4125    0.0000 C   0  0  0  0  0  0  0  0  0  0  0  0
    1.4289    0.0000    0.0000 C   0  0  0  0  0  0  0  0  0  0  0  0
    1.4289    0.8250    0.0000 C   0  0  0  0  0  0  0  0  0  0  0  0
    2.1434    1.2375    0.0000 O   0  0  0  0  0  0  0  0  0  0  0  0
    0.7145    1.2375    0.0000 O   0  0  0  0  0  0  0  0  0  0  0  0
    2.1434   -0.4125    0.0000 C   0  0  0  0  0  0  0  0  0  0  0  0
    2.8579    0.0000    0.0000 C   0  0  0  0  0  0  0  0  0  0  0  0
    3.5724   -0.4125    0.0000 C   0  0  0  0  0  0  0  0  0  0  0  0
    4.2868   -0.0000    0.0000 Cl  0  0  0  0  0  0  0  0  0  0  0  0
    3.5724   -1.2375    0.0000 C   0  0  0  0  0  0  0  0  0  0  0  0
    2.8579   -1.6500    0.0000 C   0  0  0  0  0  0  0  0  0  0  0  0
    2.1434   -1.2375    0.0000 C   0  0  0  0  0  0  0  0  0  0  0  0
    1.4289   -1.6500    0.0000 N   0  0  0  0  0  0  0  0  0  0  0  0
    0.0000   -2.4750    0.0000 C   0  0  0  0  0  0  0  0  0  0  0  0
   -0.7145   -2.8875    0.0000 C   0  0  0  0  0  0  0  0  0  0  0  0
  1  2  1  0  0  0  0
  2  3  1  0  0  0  0
  3  4  1  0  0  0  0
  4  5  1  0  0  0  0
  5  6  4  0  0  0  0
  6  7  4  0  0  0  0
  7  8  4  0  0  0  0
  8  9  1  0  0  0  0
  9 10  4  0  0  0  0
 10 11  4  0  0  0  0
 11 12  1  0  0  0  0
 12 13  2  0  0  0  0
 12 14  1  0  0  0  0
 11 15  4  0  0  0  0
 15 16  4  0  0  0  0
 16 17  4  0  0  0  0
 17 18  1  0  0  0  0
 17 19  4  0  0  0  0
 19 20  4  0  0  0  0
 20 21  4  0  0  0  0
 15 21  4  0  0  0  0
 21 22  4  0  0  0  0
  9 22  4  0  0  0  0
  8 23  4  0  0  0  0
 23 24  4  0  0  0  0
  5 24  4  0  0  0  0
M  END
> <IC50(uM)>
0.26

> <Outcome>
1.0

> <BindingDB ID>
51064012

> <BindingDB MonomerID>
50434236

> <BindingDB Ligand Name>
CHEMBL2385715

> <Curation/DataSource>
ChEMBL

> <Article DOI>
10.1021/ml300464h

> <PMID>
23930152

> <Patent Number>
?

> <Authors>
Das, P; Deng, X; Zhang, L; Roth, MG; Fontoura, BM; Phillips, MA; De Brabander, JK

> <Link to Ligand in BindingDB>
http://www.bindingdb.org/bind/chemsearch/marvin/MolStructure.jsp?monomerid=50434236

> <Link to Ligand-Target Pair in BindingDB>
http://www.bindingdb.org/jsp/dbsearch/PrimarySearch_ki.jsp?energyterm=kJ/mole&tag=r21&monomerid=50434236&enzyme=Dihydroorotate+dehydrogenase&column=ki&startPg=0&Increment=50&submit=Search

> <PubChem CID>
1746237

> <PubChem SID>
175446553

$$$$

  Mrv2115 07222212352D          

 39 43  0  0  0  0            999 V2000
   -5.5784   -3.5558    0.0000 C   0  0  0  0  0  0  0  0  0  0  0  0
   -5.1659   -2.8414    0.0000 O   0  0  0  0  0  0  0  0  0  0  0  0
   -5.5784   -2.1269    0.0000 C   0  0  0  0  0  0  0  0  0  0  0  0
   -6.4034   -2.1269    0.0000 N   0  0  0  0  0  0  0  0  0  0  0  0
   -6.8159   -1.4124    0.0000 C   0  0  0  0  0  0  0  0  0  0  0  0
   -6.4034   -0.6979    0.0000 N   0  0  0  0  0  0  0  0  0  0  0  0
   -5.5784   -0.6979    0.0000 C   0  0  0  0  0  0  0  0  0  0  0  0
   -5.1659    0.0165    0.0000 O   0  0  0  0  0  0  0  0  0  0  0  0
   -5.5784    0.7310    0.0000 C   0  0  0  0  0  0  0  0  0  0  0  0
   -5.1659   -1.4124    0.0000 C   0  0  0  0  0  0  0  0  0  0  0  0
   -4.3409   -1.4124    0.0000 N   0  0  0  0  0  0  0  0  0  0  0  0
   -3.9284   -0.6979    0.0000 C   0  0  0  0  0  0  0  0  0  0  0  0
   -4.3409    0.0165    0.0000 O   0  0  0  0  0  0  0  0  0  0  0  0
   -3.1034   -0.6979    0.0000 C   0  0  0  0  0  0  0  0  0  0  0  0
   -2.6909    0.0165    0.0000 C   0  0  0  0  0  0  0  0  0  0  0  0
   -1.8659    0.0165    0.0000 C   0  0  0  0  0  0  0  0  0  0  0  0
   -1.4534    0.7310    0.0000 F   0  0  0  0  0  0  0  0  0  0  0  0
   -1.4534   -0.6979    0.0000 C   0  0  0  0  0  0  0  0  0  0  0  0
   -0.6284   -0.6979    0.0000 N   0  0  0  0  0  0  0  0  0  0  0  0
   -0.1435   -1.3654    0.0000 N   0  0  0  0  0  0  0  0  0  0  0  0
    0.6411   -1.1104    0.0000 C   0  0  0  0  0  0  0  0  0  0  0  0
    0.6411   -0.2854    0.0000 N   0  0  0  0  0  0  0  0  0  0  0  0
   -0.1435   -0.0305    0.0000 C   0  0  0  0  0  0  0  0  0  0  0  0
   -0.3984    0.7541    0.0000 O   0  0  0  0  0  0  0  0  0  0  0  0
    1.3556    0.1271    0.0000 C   0  0  0  0  0  0  0  0  0  0  0  0
    2.0701   -0.2854    0.0000 C   0  0  0  0  0  0  0  0  0  0  0  0
    2.0701   -1.1104    0.0000 C   0  0  0  0  0  0  0  0  0  0  0  0
    1.3556   -1.5229    0.0000 C   0  0  0  0  0  0  0  0  0  0  0  0
   -1.8659   -1.4124    0.0000 C   0  0  0  0  0  0  0  0  0  0  0  0
   -2.6909   -1.4124    0.0000 C   0  0  0  0  0  0  0  0  0  0  0  0
   -3.1034   -2.1269    0.0000 O   0  0  0  0  0  0  0  0  0  0  0  0
   -2.6909   -2.8414    0.0000 C   0  0  0  0  0  0  0  0  0  0  0  0
   -1.8659   -2.8414    0.0000 C   0  0  0  0  0  0  0  0  0  0  0  0
   -3.1034   -3.5558    0.0000 C   0  0  0  0  0  0  0  0  0  0  0  0
   -2.6909   -4.2703    0.0000 C   0  0  0  0  0  0  0  0  0  0  0  0
   -3.1034   -4.9848    0.0000 C   0  0  0  0  0  0  0  0  0  0  0  0
   -3.9284   -4.9848    0.0000 C   0  0  0  0  0  0  0  0  0  0  0  0
   -4.3409   -4.2703    0.0000 C   0  0  0  0  0  0  0  0  0  0  0  0
   -3.9284   -3.5558    0.0000 C   0  0  0  0  0  0  0  0  0  0  0  0
  1  2  1  0  0  0  0
  2  3  1  0  0  0  0
  3  4  4  0  0  0  0
  4  5  4  0  0  0  0
  5  6  4  0  0  0  0
  6  7  4  0  0  0  0
  7  8  1  0  0  0  0
  8  9  1  0  0  0  0
  7 10  4  0  0  0  0
  3 10  4  0  0  0  0
 10 11  1  0  0  0  0
 11 12  1  0  0  0  0
 12 13  2  0  0  0  0
 12 14  1  0  0  0  0
 14 15  4  0  0  0  0
 15 16  4  0  0  0  0
 16 17  1  0  0  0  0
 16 18  4  0  0  0  0
 18 19  1  0  0  0  0
 19 20  4  0  0  0  0
 20 21  4  0  0  0  0
 21 22  4  0  0  0  0
 22 23  4  0  0  0  0
 19 23  4  0  0  0  0
 23 24  2  0  0  0  0
 22 25  1  0  0  0  0
 25 26  1  0  0  0  0
 26 27  1  0  0  0  0
 27 28  1  0  0  0  0
 21 28  1  0  0  0  0
 18 29  4  0  0  0  0
 29 30  4  0  0  0  0
 14 30  4  0  0  0  0
 30 31  1  0  0  0  0
 31 32  1  0  0  0  0
 32 33  1  0  0  0  0
 32 34  1  0  0  0  0
 34 35  1  0  0  0  0
 35 36  1  0  0  0  0
 36 37  1  0  0  0  0
 37 38  1  0  0  0  0
 38 39  1  0  0  0  0
 34 39  1  0  0  0  0
M  END
> <IC50(uM)>
0.08

> <Outcome>
1.0

> <BindingDB ID>
1020509

> <BindingDB MonomerID>
490457

> <BindingDB Ligand Name>
2-[(1S)-1-cyclohexylethoxy]-N-(4,6-dimethoxypyrimidin-5-yl)-5-fluoro-4-(3-oxo-5,6,7,8-tetrahydro[1,2,4]triazolo[4,3-a]pyridin-2(3H)-yl)benzamide::US10968216, Example 125

> <Curation/DataSource>
US Patent

> <Article DOI>
?

> <PMID>
?

> <Patent Number>
US10968216

> <Authors>
Gradl, SN; Nguyen, D; Eis, K; Gunther, J; Stellfeld, T; Janzer, A; Christian, S; Mueller, T; Sheikh, SE; Zhou, HJ; Zhao, C; Sykes, DB; Ferrara, SJ; Liu, K; Herbert, SA; Merz, C; Niehues, M; Nising, CF; Schafer, M; Zimmermann, K; Knablein, J; Thede, K; Faupel, T

> <Link to Ligand in BindingDB>
http://www.bindingdb.org/bind/chemsearch/marvin/MolStructure.jsp?monomerid=490457

> <Link to Ligand-Target Pair in BindingDB>
http://www.bindingdb.org/jsp/dbsearch/PrimarySearch_ki.jsp?energyterm=kJ/mole&tag=r21&monomerid=490457&enzyme=Dihydroorotate+dehydrogenase&column=ki&startPg=0&Increment=50&submit=Search

> <PubChem CID>
134474389

> <PubChem SID>
447117184

$$$$

  Mrv2115 07222212352D          

 26 28  0  0  0  0            999 V2000
    1.4289   -1.6500    0.0000 N   0  0  0  0  0  0  0  0  0  0  0  0
    2.1434   -1.2375    0.0000 C   0  0  0  0  0  0  0  0  0  0  0  0
    2.8579   -0.8250    0.0000 C   0  0  0  0  0  0  0  0  0  0  0  0
    2.8579    0.0000    0.0000 C   0  0  0  0  0  0  0  0  0  0  0  0
    3.5724    0.4125    0.0000 C   0  0  0  0  0  0  0  0  0  0  0  0
    4.2868    0.0000    0.0000 C   0  0  0  0  0  0  0  0  0  0  0  0
    5.0013    0.4125    0.0000 C   0  0  0  0  0  0  0  0  0  0  0  0
    5.0013    1.2375    0.0000 O   0  0  0  0  0  0  0  0  0  0  0  0
    5.7158    0.0000    0.0000 N   0  0  0  0  0  0  0  0  0  0  0  0
    6.4302    0.4125    0.0000 C   0  0  0  0  0  0  0  0  0  0  0  0
    7.1447    0.0000    0.0000 C   0  0  0  0  0  0  0  0  0  0  0  0
    7.8592    0.4125    0.0000 C   0  0  0  0  0  0  0  0  0  0  0  0
    7.8592    1.2375    0.0000 O   0  0  0  0  0  0  0  0  0  0  0  0
    8.5737    0.0000    0.0000 N   0  0  0  0  0  0  0  0  0  0  0  0
    9.2881    0.4125    0.0000 C   0  0  0  0  0  0  0  0  0  0  0  0
    9.2881    1.2375    0.0000 C   0  0  0  0  0  0  0  0  0  0  0  0
   10.0026    1.6500    0.0000 C   0  0  0  0  0  0  0  0  0  0  0  0
   10.7171    1.2375    0.0000 C   0  0  0  0  0  0  0  0  0  0  0  0
   10.7171    0.4125    0.0000 C   0  0  0  0  0  0  0  0  0  0  0  0
   11.4315    0.0000    0.0000 C   0  0  0  0  0  0  0  0  0  0  0  0
   11.4315   -0.8250    0.0000 C   0  0  0  0  0  0  0  0  0  0  0  0
   10.7171   -1.2375    0.0000 C   0  0  0  0  0  0  0  0  0  0  0  0
   10.0026   -0.8250    0.0000 C   0  0  0  0  0  0  0  0  0  0  0  0
   10.0026    0.0000    0.0000 C   0  0  0  0  0  0  0  0  0  0  0  0
    4.2868   -0.8250    0.0000 C   0  0  0  0  0  0  0  0  0  0  0  0
    3.5724   -1.2375    0.0000 C   0  0  0  0  0  0  0  0  0  0  0  0
  1  2  3  0  0  0  0
  2  3  1  0  0  0  0
  3  4  4  0  0  0  0
  4  5  4  0  0  0  0
  5  6  4  0  0  0  0
  6  7  1  0  0  0  0
  7  8  2  0  0  0  0
  7  9  1  0  0  0  0
  9 10  1  0  0  0  0
 10 11  1  0  0  0  0
 11 12  1  0  0  0  0
 12 13  2  0  0  0  0
 12 14  1  0  0  0  0
 14 15  1  0  0  0  0
 15 16  1  0  0  0  0
 16 17  1  0  0  0  0
 17 18  1  0  0  0  0
 18 19  1  0  0  0  0
 19 20  4  0  0  0  0
 20 21  4  0  0  0  0
 21 22  4  0  0  0  0
 22 23  4  0  0  0  0
 23 24  4  0  0  0  0
 19 24  4  0  0  0  0
 15 24  1  0  0  0  0
  6 25  4  0  0  0  0
 25 26  4  0  0  0  0
  3 26  4  0  0  0  0
M  END
> <IC50(uM)>
8.9

> <Outcome>
0.0

> <BindingDB ID>
50527768

> <BindingDB MonomerID>
50201613

> <BindingDB Ligand Name>
CHEMBL3183877

> <Curation/DataSource>
ChEMBL

> <Article DOI>
10.1021/acsmedchemlett.6b00316

> <PMID>
27994748

> <Patent Number>
?

> <Authors>
Lewis, TA; Sykes, DB; Law, JM; Mu??oz, B; Rustiguel, JK; Nonato, MC; Scadden, DT; Schreiber, SL

> <Link to Ligand in BindingDB>
http://www.bindingdb.org/bind/chemsearch/marvin/MolStructure.jsp?monomerid=50201613

> <Link to Ligand-Target Pair in BindingDB>
http://www.bindingdb.org/jsp/dbsearch/PrimarySearch_ki.jsp?energyterm=kJ/mole&tag=r21&monomerid=50201613&enzyme=Dihydroorotate+dehydrogenase&column=ki&startPg=0&Increment=50&submit=Search

> <PubChem CID>
71768313

> <PubChem SID>
375979403

$$$$

  Mrv2115 07222212352D          

 19 20  0  0  0  0            999 V2000
   -0.6078   -0.4741    0.0000 C   0  0  0  0  0  0  0  0  0  0  0  0
   -0.6078   -1.2991    0.0000 C   0  0  0  0  0  0  0  0  0  0  0  0
    0.0597   -1.7840    0.0000 N   0  0  0  0  0  0  0  0  0  0  0  0
   -0.1953   -2.5687    0.0000 N   0  0  0  0  0  0  0  0  0  0  0  0
   -1.0203   -2.5687    0.0000 C   0  0  0  0  0  0  0  0  0  0  0  0
   -1.5052   -3.2361    0.0000 N   0  0  0  0  0  0  0  0  0  0  0  0
   -1.1696   -3.9898    0.0000 C   0  0  0  0  0  0  0  0  0  0  0  0
   -0.3491   -4.0760    0.0000 C   0  0  0  0  0  0  0  0  0  0  0  0
   -0.0136   -4.8297    0.0000 C   0  0  0  0  0  0  0  0  0  0  0  0
   -0.4985   -5.4971    0.0000 C   0  0  0  0  0  0  0  0  0  0  0  0
   -1.3190   -5.4109    0.0000 C   0  0  0  0  0  0  0  0  0  0  0  0
   -1.8039   -6.0783    0.0000 C   0  0  0  0  0  0  0  0  0  0  0  0
   -2.2888   -6.7458    0.0000 F   0  0  0  0  0  0  0  0  0  0  0  0
   -2.4714   -5.5934    0.0000 F   0  0  0  0  0  0  0  0  0  0  0  0
   -1.1365   -6.5632    0.0000 F   0  0  0  0  0  0  0  0  0  0  0  0
   -1.6546   -4.6572    0.0000 C   0  0  0  0  0  0  0  0  0  0  0  0
   -1.2752   -1.7840    0.0000 C   0  0  0  0  0  0  0  0  0  0  0  0
   -2.0598   -1.5291    0.0000 C   0  0  0  0  0  0  0  0  0  0  0  0
   -2.8444   -1.2742    0.0000 N   0  0  0  0  0  0  0  0  0  0  0  0
  1  2  1  0  0  0  0
  2  3  4  0  0  0  0
  3  4  4  0  0  0  0
  4  5  4  0  0  0  0
  5  6  1  0  0  0  0
  6  7  1  0  0  0  0
  7  8  4  0  0  0  0
  8  9  4  0  0  0  0
  9 10  4  0  0  0  0
 10 11  4  0  0  0  0
 11 12  1  0  0  0  0
 12 13  1  0  0  0  0
 12 14  1  0  0  0  0
 12 15  1  0  0  0  0
 11 16  4  0  0  0  0
  7 16  4  0  0  0  0
  5 17  4  0  0  0  0
  2 17  4  0  0  0  0
 17 18  1  0  0  0  0
 18 19  3  0  0  0  0
M  STY  1   1 DAT
M  SAL   1  1   4
M  SDT   1 MRV_IMPLICIT_H                                        
M  SDD   1     0.5304   -0.4125    DR    ALL  0       0  
M  SED   1 IMPL_H1
M  END
> <IC50(uM)>
50.0

> <Outcome>
0.0

> <BindingDB ID>
50786772

> <BindingDB MonomerID>
50066600

> <BindingDB Ligand Name>
5-Methyl-3-(3-trifluoromethyl-phenylamino)-1H-pyrazole-4-carbonitrile::CHEMBL119564

> <Curation/DataSource>
ChEMBL

> <Article DOI>
10.1021/jm981028c

> <PMID>
9719606

> <Patent Number>
?

> <Authors>
Papageorgiou, C; Albert, R; Floersheim, P; Lemaire, M; Bitch, F; Weber, HP; Andersen, E; Hungerford, V; Schreier, MH

> <Link to Ligand in BindingDB>
http://www.bindingdb.org/bind/chemsearch/marvin/MolStructure.jsp?monomerid=50066600

> <Link to Ligand-Target Pair in BindingDB>
http://www.bindingdb.org/jsp/dbsearch/PrimarySearch_ki.jsp?energyterm=kJ/mole&tag=r21&monomerid=50066600&enzyme=Dihydroorotate+dehydrogenase&column=ki&startPg=0&Increment=50&submit=Search

> <PubChem CID>
10849345

> <PubChem SID>
103961220

$$$$

  Mrv2115 07222212352D          

 39 42  0  0  0  0            999 V2000
   -3.1034    2.1599    0.0000 C   0  0  0  0  0  0  0  0  0  0  0  0
   -2.6909    1.4455    0.0000 C   0  0  0  0  0  0  0  0  0  0  0  0
   -3.1034    0.7310    0.0000 O   0  0  0  0  0  0  0  0  0  0  0  0
   -2.6909    0.0165    0.0000 C   0  0  0  0  0  0  0  0  0  0  0  0
   -1.8659    0.0165    0.0000 C   0  0  0  0  0  0  0  0  0  0  0  0
   -1.4534   -0.6979    0.0000 C   0  0  0  0  0  0  0  0  0  0  0  0
   -0.6284   -0.6979    0.0000 N   0  0  0  0  0  0  0  0  0  0  0  0
   -0.1435   -1.3654    0.0000 N   0  0  0  0  0  0  0  0  0  0  0  0
    0.6411   -1.1104    0.0000 C   0  0  0  0  0  0  0  0  0  0  0  0
    0.6411   -0.2854    0.0000 N   0  0  0  0  0  0  0  0  0  0  0  0
   -0.1435   -0.0305    0.0000 C   0  0  0  0  0  0  0  0  0  0  0  0
   -0.3984    0.7541    0.0000 O   0  0  0  0  0  0  0  0  0  0  0  0
    1.3556    0.1271    0.0000 C   0  0  0  0  0  0  0  0  0  0  0  0
    2.0701   -0.2854    0.0000 C   0  0  0  0  0  0  0  0  0  0  0  0
    2.0701   -1.1104    0.0000 C   0  0  0  0  0  0  0  0  0  0  0  0
    1.3556   -1.5229    0.0000 C   0  0  0  0  0  0  0  0  0  0  0  0
   -1.8659   -1.4124    0.0000 C   0  0  0  0  0  0  0  0  0  0  0  0
   -1.4534   -2.1269    0.0000 F   0  0  0  0  0  0  0  0  0  0  0  0
   -2.6909   -1.4124    0.0000 C   0  0  0  0  0  0  0  0  0  0  0  0
   -3.1034   -0.6979    0.0000 C   0  0  0  0  0  0  0  0  0  0  0  0
   -3.9284   -0.6979    0.0000 C   0  0  0  0  0  0  0  0  0  0  0  0
   -4.3409   -1.4124    0.0000 O   0  0  0  0  0  0  0  0  0  0  0  0
   -4.3409    0.0165    0.0000 N   0  0  0  0  0  0  0  0  0  0  0  0
   -5.1659    0.0165    0.0000 C   0  0  0  0  0  0  0  0  0  0  0  0
   -5.5784   -0.6979    0.0000 C   0  0  0  0  0  0  0  0  0  0  0  0
   -6.4034   -0.6979    0.0000 C   0  0  0  0  0  0  0  0  0  0  0  0
   -6.8159    0.0165    0.0000 C   0  0  0  0  0  0  0  0  0  0  0  0
   -6.4034    0.7310    0.0000 C   0  0  0  0  0  0  0  0  0  0  0  0
   -6.8159    1.4455    0.0000 C   0  0  0  0  0  0  0  0  0  0  0  0
   -7.2284    2.1599    0.0000 F   0  0  0  0  0  0  0  0  0  0  0  0
   -6.1015    1.8580    0.0000 F   0  0  0  0  0  0  0  0  0  0  0  0
   -7.5304    1.0330    0.0000 F   0  0  0  0  0  0  0  0  0  0  0  0
   -5.5784    0.7310    0.0000 C   0  0  0  0  0  0  0  0  0  0  0  0
   -5.1659    1.4455    0.0000 C   0  0  0  0  0  0  0  0  0  0  0  0
   -4.3409    1.4455    0.0000 O   0  0  0  0  0  0  0  0  0  0  0  0
   -1.8659    1.4455    0.0000 C   0  0  0  0  0  0  0  0  0  0  0  0
   -1.8659    0.6205    0.0000 F   0  0  0  0  0  0  0  0  0  0  0  0
   -1.8659    2.2705    0.0000 F   0  0  0  0  0  0  0  0  0  0  0  0
   -1.0409    1.4455    0.0000 F   0  0  0  0  0  0  0  0  0  0  0  0
  1  2  1  0  0  0  0
  2  3  1  0  0  0  0
  3  4  1  0  0  0  0
  4  5  4  0  0  0  0
  5  6  4  0  0  0  0
  6  7  1  0  0  0  0
  7  8  4  0  0  0  0
  8  9  4  0  0  0  0
  9 10  4  0  0  0  0
 10 11  4  0  0  0  0
  7 11  4  0  0  0  0
 11 12  2  0  0  0  0
 10 13  1  0  0  0  0
 13 14  1  0  0  0  0
 14 15  1  0  0  0  0
 15 16  1  0  0  0  0
  9 16  1  0  0  0  0
  6 17  4  0  0  0  0
 17 18  1  0  0  0  0
 17 19  4  0  0  0  0
 19 20  4  0  0  0  0
  4 20  4  0  0  0  0
 20 21  1  0  0  0  0
 21 22  2  0  0  0  0
 21 23  1  0  0  0  0
 23 24  1  0  0  0  0
 24 25  4  0  0  0  0
 25 26  4  0  0  0  0
 26 27  4  0  0  0  0
 27 28  4  0  0  0  0
 28 29  1  0  0  0  0
 29 30  1  0  0  0  0
 29 31  1  0  0  0  0
 29 32  1  0  0  0  0
 28 33  4  0  0  0  0
 24 33  4  0  0  0  0
 33 34  1  0  0  0  0
 34 35  1  0  0  0  0
  2 36  1  0  0  0  0
 36 37  1  0  0  0  0
 36 38  1  0  0  0  0
 36 39  1  0  0  0  0
M  END
> <IC50(uM)>
1.8

> <Outcome>
0.0

> <BindingDB ID>
1020477

> <BindingDB MonomerID>
490425

> <BindingDB Ligand Name>
5-fluoro-N-[2-(hydroxymethyl)-3-(trifluoromethyl)phenyl]-4-(3-oxo-5,6,7,8-tetrahydro[1,2,4]triazolo[4,3-a]pyridin-2(3H)-yl)-2-{[(2S)-1,1,1-trifluoropropan-2-yl]oxy}benzamide::US10968216, Example 93

> <Curation/DataSource>
US Patent

> <Article DOI>
?

> <PMID>
?

> <Patent Number>
US10968216

> <Authors>
Gradl, SN; Nguyen, D; Eis, K; Gunther, J; Stellfeld, T; Janzer, A; Christian, S; Mueller, T; Sheikh, SE; Zhou, HJ; Zhao, C; Sykes, DB; Ferrara, SJ; Liu, K; Herbert, SA; Merz, C; Niehues, M; Nising, CF; Schafer, M; Zimmermann, K; Knablein, J; Thede, K; Faupel, T

> <Link to Ligand in BindingDB>
http://www.bindingdb.org/bind/chemsearch/marvin/MolStructure.jsp?monomerid=490425

> <Link to Ligand-Target Pair in BindingDB>
http://www.bindingdb.org/jsp/dbsearch/PrimarySearch_ki.jsp?energyterm=kJ/mole&tag=r21&monomerid=490425&enzyme=Dihydroorotate+dehydrogenase&column=ki&startPg=0&Increment=50&submit=Search

> <PubChem CID>
134474332

> <PubChem SID>
447117152

$$$$

  Mrv2115 07222212352D          

 28 31  0  0  0  0            999 V2000
   -4.2868    2.4750    0.0000 C   0  0  0  0  0  0  0  0  0  0  0  0
   -3.5724    2.0625    0.0000 C   0  0  0  0  0  0  0  0  0  0  0  0
   -2.8579    2.4750    0.0000 C   0  0  0  0  0  0  0  0  0  0  0  0
   -2.1434    2.0625    0.0000 C   0  0  0  0  0  0  0  0  0  0  0  0
   -2.1434    1.2375    0.0000 C   0  0  0  0  0  0  0  0  0  0  0  0
   -1.4289    0.8250    0.0000 C   0  0  0  0  0  0  0  0  0  0  0  0
   -0.7145    1.2375    0.0000 C   0  0  0  0  0  0  0  0  0  0  0  0
    0.0000    0.8250    0.0000 C   0  0  0  0  0  0  0  0  0  0  0  0
    0.0000   -0.0000    0.0000 C   0  0  0  0  0  0  0  0  0  0  0  0
    0.7145   -0.4125    0.0000 C   0  0  0  0  0  0  0  0  0  0  0  0
    1.4289    0.0000    0.0000 N   0  0  0  0  0  0  0  0  0  0  0  0
    2.1434   -0.4125    0.0000 C   0  0  0  0  0  0  0  0  0  0  0  0
    2.8579    0.0000    0.0000 C   0  0  0  0  0  0  0  0  0  0  0  0
    3.5724   -0.4125    0.0000 C   0  0  0  0  0  0  0  0  0  0  0  0
    3.5724   -1.2375    0.0000 C   0  0  0  0  0  0  0  0  0  0  0  0
    2.8579   -1.6500    0.0000 C   0  0  0  0  0  0  0  0  0  0  0  0
    2.1434   -1.2375    0.0000 C   0  0  0  0  0  0  0  0  0  0  0  0
    1.4289   -1.6500    0.0000 C   0  0  0  0  0  0  0  0  0  0  0  0
    1.4289   -2.4750    0.0000 C   0  0  0  0  0  0  0  0  0  0  0  0
    0.7145   -2.8875    0.0000 O   0  0  0  0  0  0  0  0  0  0  0  0
    2.1434   -2.8875    0.0000 O   0  0  0  0  0  0  0  0  0  0  0  0
    0.7145   -1.2375    0.0000 C   0  0  0  0  0  0  0  0  0  0  0  0
    0.0000   -1.6500    0.0000 C   0  0  0  0  0  0  0  0  0  0  0  0
   -0.7145   -0.4125    0.0000 C   0  0  0  0  0  0  0  0  0  0  0  0
   -1.4289   -0.0000    0.0000 C   0  0  0  0  0  0  0  0  0  0  0  0
   -2.8579    0.8250    0.0000 C   0  0  0  0  0  0  0  0  0  0  0  0
   -2.8579   -0.0000    0.0000 F   0  0  0  0  0  0  0  0  0  0  0  0
   -3.5724    1.2375    0.0000 N   0  0  0  0  0  0  0  0  0  0  0  0
  1  2  1  0  0  0  0
  2  3  4  0  0  0  0
  3  4  4  0  0  0  0
  4  5  4  0  0  0  0
  5  6  1  0  0  0  0
  6  7  4  0  0  0  0
  7  8  4  0  0  0  0
  8  9  4  0  0  0  0
  9 10  1  0  0  0  0
 10 11  4  0  0  0  0
 11 12  4  0  0  0  0
 12 13  4  0  0  0  0
 13 14  4  0  0  0  0
 14 15  4  0  0  0  0
 15 16  4  0  0  0  0
 16 17  4  0  0  0  0
 12 17  4  0  0  0  0
 17 18  4  0  0  0  0
 18 19  1  0  0  0  0
 19 20  2  0  0  0  0
 19 21  1  0  0  0  0
 18 22  4  0  0  0  0
 10 22  4  0  0  0  0
 22 23  1  0  0  0  0
  9 24  4  0  0  0  0
 24 25  4  0  0  0  0
  6 25  4  0  0  0  0
  5 26  4  0  0  0  0
 26 27  1  0  0  0  0
 26 28  4  0  0  0  0
  2 28  4  0  0  0  0
M  END
> <IC50(uM)>
2.48

> <Outcome>
0.0

> <BindingDB ID>
51126165

> <BindingDB MonomerID>
50461852

> <BindingDB Ligand Name>
CHEMBL4226328

> <Curation/DataSource>
ChEMBL

> <Article DOI>
10.1021/acs.jmedchem.7b01862

> <PMID>
29727569

> <Patent Number>
?

> <Authors>
Madak, JT; Cuthbertson, CR; Miyata, Y; Tamura, S; Petrunak, EM; Stuckey, JA; Han, Y; He, M; Sun, D; Showalter, HD; Neamati, N

> <Link to Ligand in BindingDB>
http://www.bindingdb.org/bind/chemsearch/marvin/MolStructure.jsp?monomerid=50461852

> <Link to Ligand-Target Pair in BindingDB>
http://www.bindingdb.org/jsp/dbsearch/PrimarySearch_ki.jsp?energyterm=kJ/mole&tag=r21&monomerid=50461852&enzyme=Dihydroorotate+dehydrogenase&column=ki&startPg=0&Increment=50&submit=Search

> <PubChem CID>
145969709

> <PubChem SID>
433929117

$$$$

  Mrv2115 07222212352D          

 40 44  0  0  0  0            999 V2000
   -5.1659   -4.2703    0.0000 C   0  0  0  0  0  0  0  0  0  0  0  0
   -5.5784   -3.5558    0.0000 O   0  0  0  0  0  0  0  0  0  0  0  0
   -5.1659   -2.8414    0.0000 C   0  0  0  0  0  0  0  0  0  0  0  0
   -4.3409   -2.8414    0.0000 O   0  0  0  0  0  0  0  0  0  0  0  0
   -5.5784   -2.1269    0.0000 C   0  0  0  0  0  0  0  0  0  0  0  0
   -6.4034   -2.1269    0.0000 C   0  0  0  0  0  0  0  0  0  0  0  0
   -6.8159   -1.4124    0.0000 C   0  0  0  0  0  0  0  0  0  0  0  0
   -6.4034   -0.6979    0.0000 C   0  0  0  0  0  0  0  0  0  0  0  0
   -5.5784   -0.6979    0.0000 C   0  0  0  0  0  0  0  0  0  0  0  0
   -5.1659    0.0165    0.0000 C   0  0  0  0  0  0  0  0  0  0  0  0
   -5.1659   -1.4124    0.0000 C   0  0  0  0  0  0  0  0  0  0  0  0
   -4.3409   -1.4124    0.0000 N   0  0  0  0  0  0  0  0  0  0  0  0
   -3.9284   -0.6979    0.0000 C   0  0  0  0  0  0  0  0  0  0  0  0
   -4.3409    0.0165    0.0000 O   0  0  0  0  0  0  0  0  0  0  0  0
   -3.1034   -0.6979    0.0000 C   0  0  0  0  0  0  0  0  0  0  0  0
   -2.6909    0.0165    0.0000 C   0  0  0  0  0  0  0  0  0  0  0  0
   -1.8659    0.0165    0.0000 C   0  0  0  0  0  0  0  0  0  0  0  0
   -1.4534    0.7310    0.0000 F   0  0  0  0  0  0  0  0  0  0  0  0
   -1.4534   -0.6979    0.0000 C   0  0  0  0  0  0  0  0  0  0  0  0
   -0.6284   -0.6979    0.0000 N   0  0  0  0  0  0  0  0  0  0  0  0
   -0.1435   -1.3654    0.0000 N   0  0  0  0  0  0  0  0  0  0  0  0
    0.6411   -1.1104    0.0000 C   0  0  0  0  0  0  0  0  0  0  0  0
    0.6411   -0.2854    0.0000 N   0  0  0  0  0  0  0  0  0  0  0  0
   -0.1435   -0.0305    0.0000 C   0  0  0  0  0  0  0  0  0  0  0  0
   -0.3984    0.7541    0.0000 O   0  0  0  0  0  0  0  0  0  0  0  0
    1.3556    0.1271    0.0000 C   0  0  0  0  0  0  0  0  0  0  0  0
    2.0701   -0.2854    0.0000 C   0  0  0  0  0  0  0  0  0  0  0  0
    2.0701   -1.1104    0.0000 C   0  0  0  0  0  0  0  0  0  0  0  0
    1.3556   -1.5229    0.0000 C   0  0  0  0  0  0  0  0  0  0  0  0
   -1.8659   -1.4124    0.0000 C   0  0  0  0  0  0  0  0  0  0  0  0
   -2.6909   -1.4124    0.0000 C   0  0  0  0  0  0  0  0  0  0  0  0
   -3.1034   -2.1269    0.0000 O   0  0  0  0  0  0  0  0  0  0  0  0
   -2.6909   -2.8414    0.0000 C   0  0  0  0  0  0  0  0  0  0  0  0
   -1.8659   -2.8414    0.0000 C   0  0  0  0  0  0  0  0  0  0  0  0
   -3.1034   -3.5558    0.0000 C   0  0  0  0  0  0  0  0  0  0  0  0
   -2.6909   -4.2703    0.0000 C   0  0  0  0  0  0  0  0  0  0  0  0
   -3.1034   -4.9848    0.0000 C   0  0  0  0  0  0  0  0  0  0  0  0
   -3.9284   -4.9848    0.0000 C   0  0  0  0  0  0  0  0  0  0  0  0
   -4.3409   -4.2703    0.0000 C   0  0  0  0  0  0  0  0  0  0  0  0
   -3.9284   -3.5558    0.0000 C   0  0  0  0  0  0  0  0  0  0  0  0
  1  2  1  0  0  0  0
  2  3  1  0  0  0  0
  3  4  2  0  0  0  0
  3  5  1  0  0  0  0
  5  6  4  0  0  0  0
  6  7  4  0  0  0  0
  7  8  4  0  0  0  0
  8  9  4  0  0  0  0
  9 10  1  0  0  0  0
  9 11  4  0  0  0  0
  5 11  4  0  0  0  0
 11 12  1  0  0  0  0
 12 13  1  0  0  0  0
 13 14  2  0  0  0  0
 13 15  1  0  0  0  0
 15 16  4  0  0  0  0
 16 17  4  0  0  0  0
 17 18  1  0  0  0  0
 17 19  4  0  0  0  0
 19 20  1  0  0  0  0
 20 21  4  0  0  0  0
 21 22  4  0  0  0  0
 22 23  4  0  0  0  0
 23 24  4  0  0  0  0
 20 24  4  0  0  0  0
 24 25  2  0  0  0  0
 23 26  1  0  0  0  0
 26 27  1  0  0  0  0
 27 28  1  0  0  0  0
 28 29  1  0  0  0  0
 22 29  1  0  0  0  0
 19 30  4  0  0  0  0
 30 31  4  0  0  0  0
 15 31  4  0  0  0  0
 31 32  1  0  0  0  0
 32 33  1  0  0  0  0
 33 34  1  0  0  0  0
 33 35  1  0  0  0  0
 35 36  1  0  0  0  0
 36 37  1  0  0  0  0
 37 38  1  0  0  0  0
 38 39  1  0  0  0  0
 39 40  1  0  0  0  0
 35 40  1  0  0  0  0
M  END
> <IC50(uM)>
0.175

> <Outcome>
1.0

> <BindingDB ID>
1020530

> <BindingDB MonomerID>
490475

> <BindingDB Ligand Name>
Methyl 2-({2-[(1R)-1-cyclohexylethoxy]-5-fluoro-4-(3-oxo-5,6,7,8-tetrahydro[1,2,4]triazolo[4,3-a]pyridin-2(3H)-yl)benzoyl}amino)-3-methylbenzoate::US10968216, Example 143

> <Curation/DataSource>
US Patent

> <Article DOI>
?

> <PMID>
?

> <Patent Number>
US10968216

> <Authors>
Gradl, SN; Nguyen, D; Eis, K; Gunther, J; Stellfeld, T; Janzer, A; Christian, S; Mueller, T; Sheikh, SE; Zhou, HJ; Zhao, C; Sykes, DB; Ferrara, SJ; Liu, K; Herbert, SA; Merz, C; Niehues, M; Nising, CF; Schafer, M; Zimmermann, K; Knablein, J; Thede, K; Faupel, T

> <Link to Ligand in BindingDB>
http://www.bindingdb.org/bind/chemsearch/marvin/MolStructure.jsp?monomerid=490475

> <Link to Ligand-Target Pair in BindingDB>
http://www.bindingdb.org/jsp/dbsearch/PrimarySearch_ki.jsp?energyterm=kJ/mole&tag=r21&monomerid=490475&enzyme=Dihydroorotate+dehydrogenase&column=ki&startPg=0&Increment=50&submit=Search

> <PubChem CID>
152326874

> <PubChem SID>
447117202

$$$$

  Mrv2115 07222212352D          

 38 41  0  0  0  0            999 V2000
   -3.1034    2.1599    0.0000 C   0  0  0  0  0  0  0  0  0  0  0  0
   -2.6909    1.4455    0.0000 C   0  0  0  0  0  0  0  0  0  0  0  0
   -3.1034    0.7310    0.0000 O   0  0  0  0  0  0  0  0  0  0  0  0
   -2.6909    0.0165    0.0000 C   0  0  0  0  0  0  0  0  0  0  0  0
   -1.8659    0.0165    0.0000 C   0  0  0  0  0  0  0  0  0  0  0  0
   -1.4534   -0.6979    0.0000 C   0  0  0  0  0  0  0  0  0  0  0  0
   -0.6284   -0.6979    0.0000 N   0  0  0  0  0  0  0  0  0  0  0  0
   -0.1435   -1.3654    0.0000 N   0  0  0  0  0  0  0  0  0  0  0  0
    0.6411   -1.1104    0.0000 C   0  0  0  0  0  0  0  0  0  0  0  0
    0.6411   -0.2854    0.0000 N   0  0  0  0  0  0  0  0  0  0  0  0
   -0.1435   -0.0305    0.0000 C   0  0  0  0  0  0  0  0  0  0  0  0
   -0.3984    0.7541    0.0000 O   0  0  0  0  0  0  0  0  0  0  0  0
    1.3556    0.1271    0.0000 C   0  0  0  0  0  0  0  0  0  0  0  0
    2.0701   -0.2854    0.0000 C   0  0  0  0  0  0  0  0  0  0  0  0
    2.7845    0.1271    0.0000 C   0  0  0  0  0  0  0  0  0  0  0  0
    3.4990   -0.2854    0.0000 O   0  0  0  0  0  0  0  0  0  0  0  0
    2.7845    0.9521    0.0000 O   0  0  0  0  0  0  0  0  0  0  0  0
    2.0701   -1.1104    0.0000 C   0  0  0  0  0  0  0  0  0  0  0  0
    1.3556   -1.5229    0.0000 C   0  0  0  0  0  0  0  0  0  0  0  0
   -1.8659   -1.4124    0.0000 C   0  0  0  0  0  0  0  0  0  0  0  0
   -1.4534   -2.1269    0.0000 F   0  0  0  0  0  0  0  0  0  0  0  0
   -2.6909   -1.4124    0.0000 C   0  0  0  0  0  0  0  0  0  0  0  0
   -3.1034   -0.6979    0.0000 C   0  0  0  0  0  0  0  0  0  0  0  0
   -3.9284   -0.6979    0.0000 C   0  0  0  0  0  0  0  0  0  0  0  0
   -4.3409    0.0165    0.0000 O   0  0  0  0  0  0  0  0  0  0  0  0
   -4.3409   -1.4124    0.0000 N   0  0  0  0  0  0  0  0  0  0  0  0
   -5.1659   -1.4124    0.0000 C   0  0  0  0  0  0  0  0  0  0  0  0
   -5.5784   -2.1269    0.0000 C   0  0  0  0  0  0  0  0  0  0  0  0
   -5.1659   -2.8414    0.0000 F   0  0  0  0  0  0  0  0  0  0  0  0
   -6.4034   -2.1269    0.0000 C   0  0  0  0  0  0  0  0  0  0  0  0
   -6.8159   -1.4124    0.0000 C   0  0  0  0  0  0  0  0  0  0  0  0
   -6.4034   -0.6979    0.0000 C   0  0  0  0  0  0  0  0  0  0  0  0
   -5.5784   -0.6979    0.0000 C   0  0  0  0  0  0  0  0  0  0  0  0
   -5.1659    0.0165    0.0000 Cl  0  0  0  0  0  0  0  0  0  0  0  0
   -1.8659    1.4455    0.0000 C   0  0  0  0  0  0  0  0  0  0  0  0
   -1.8659    0.6205    0.0000 F   0  0  0  0  0  0  0  0  0  0  0  0
   -1.8659    2.2705    0.0000 F   0  0  0  0  0  0  0  0  0  0  0  0
   -1.0409    1.4455    0.0000 F   0  0  0  0  0  0  0  0  0  0  0  0
  1  2  1  0  0  0  0
  2  3  1  0  0  0  0
  3  4  1  0  0  0  0
  4  5  4  0  0  0  0
  5  6  4  0  0  0  0
  6  7  1  0  0  0  0
  7  8  4  0  0  0  0
  8  9  4  0  0  0  0
  9 10  4  0  0  0  0
 10 11  4  0  0  0  0
  7 11  4  0  0  0  0
 11 12  2  0  0  0  0
 10 13  1  0  0  0  0
 13 14  1  0  0  0  0
 14 15  1  0  0  0  0
 15 16  2  0  0  0  0
 15 17  1  0  0  0  0
 14 18  1  0  0  0  0
 18 19  1  0  0  0  0
  9 19  1  0  0  0  0
  6 20  4  0  0  0  0
 20 21  1  0  0  0  0
 20 22  4  0  0  0  0
 22 23  4  0  0  0  0
  4 23  4  0  0  0  0
 23 24  1  0  0  0  0
 24 25  2  0  0  0  0
 24 26  1  0  0  0  0
 26 27  1  0  0  0  0
 27 28  4  0  0  0  0
 28 29  1  0  0  0  0
 28 30  4  0  0  0  0
 30 31  4  0  0  0  0
 31 32  4  0  0  0  0
 32 33  4  0  0  0  0
 27 33  4  0  0  0  0
 33 34  1  0  0  0  0
  2 35  1  0  0  0  0
 35 36  1  0  0  0  0
 35 37  1  0  0  0  0
 35 38  1  0  0  0  0
M  END
> <IC50(uM)>
30.0

> <Outcome>
0.0

> <BindingDB ID>
1020659

> <BindingDB MonomerID>
490588

> <BindingDB Ligand Name>
2-(4-[(2-chloro-6-fluorophenyl)carbamoyl]-2-fluoro-5-{[(2S)-1,1,1-trifluoropropan-2-yl]oxy}phenyl)-3-oxo-2,3,5,6,7,8-hexahydro[1,2,4]triazolo[4,3-a]pyridine-6-(R,S)-carboxylic Acid, Mixture of Diastereomers::US10968216, Example 256

> <Curation/DataSource>
US Patent

> <Article DOI>
?

> <PMID>
?

> <Patent Number>
US10968216

> <Authors>
Gradl, SN; Nguyen, D; Eis, K; Gunther, J; Stellfeld, T; Janzer, A; Christian, S; Mueller, T; Sheikh, SE; Zhou, HJ; Zhao, C; Sykes, DB; Ferrara, SJ; Liu, K; Herbert, SA; Merz, C; Niehues, M; Nising, CF; Schafer, M; Zimmermann, K; Knablein, J; Thede, K; Faupel, T

> <Link to Ligand in BindingDB>
http://www.bindingdb.org/bind/chemsearch/marvin/MolStructure.jsp?monomerid=490588

> <Link to Ligand-Target Pair in BindingDB>
http://www.bindingdb.org/jsp/dbsearch/PrimarySearch_ki.jsp?energyterm=kJ/mole&tag=r21&monomerid=490588&enzyme=Dihydroorotate+dehydrogenase&column=ki&startPg=0&Increment=50&submit=Search

> <PubChem CID>
134474406

> <PubChem SID>
447117314

$$$$

  Mrv2115 07222212352D          

 28 31  0  0  0  0            999 V2000
    0.0000   -1.6500    0.0000 C   0  0  0  0  0  0  0  0  0  0  0  0
    0.7145   -1.2375    0.0000 C   0  0  0  0  0  0  0  0  0  0  0  0
    0.7145   -0.4125    0.0000 C   0  0  0  0  0  0  0  0  0  0  0  0
    1.4289    0.0000    0.0000 C   0  0  0  0  0  0  0  0  0  0  0  0
    2.1434   -0.4125    0.0000 C   0  0  0  0  0  0  0  0  0  0  0  0
    2.8579    0.0000    0.0000 N   0  0  0  0  0  0  0  0  0  0  0  0
    3.5724   -0.4125    0.0000 C   0  0  0  0  0  0  0  0  0  0  0  0
    4.2868   -0.0000    0.0000 C   0  0  0  0  0  0  0  0  0  0  0  0
    4.2868    0.8250    0.0000 C   0  0  0  0  0  0  0  0  0  0  0  0
    5.0013    1.2375    0.0000 C   0  0  0  0  0  0  0  0  0  0  0  0
    5.7158    0.8250    0.0000 C   0  0  0  0  0  0  0  0  0  0  0  0
    6.4302    1.2375    0.0000 C   0  0  0  0  0  0  0  0  0  0  0  0
    6.4302    2.0625    0.0000 C   0  0  0  0  0  0  0  0  0  0  0  0
    7.1447    2.4750    0.0000 C   0  0  0  0  0  0  0  0  0  0  0  0
    7.8592    2.0625    0.0000 C   0  0  0  0  0  0  0  0  0  0  0  0
    7.8592    1.2375    0.0000 N   0  0  0  0  0  0  0  0  0  0  0  0
    7.1447    0.8250    0.0000 C   0  0  0  0  0  0  0  0  0  0  0  0
    7.1447   -0.0000    0.0000 Cl  0  0  0  0  0  0  0  0  0  0  0  0
    5.7158   -0.0000    0.0000 C   0  0  0  0  0  0  0  0  0  0  0  0
    5.0013   -0.4125    0.0000 C   0  0  0  0  0  0  0  0  0  0  0  0
    3.5724   -1.2375    0.0000 C   0  0  0  0  0  0  0  0  0  0  0  0
    4.2868   -1.6500    0.0000 C   0  0  0  0  0  0  0  0  0  0  0  0
    2.8579   -1.6500    0.0000 C   0  0  0  0  0  0  0  0  0  0  0  0
    2.8579   -2.4750    0.0000 C   0  0  0  0  0  0  0  0  0  0  0  0
    2.1434   -2.8875    0.0000 O   0  0  0  0  0  0  0  0  0  0  0  0
    3.5724   -2.8875    0.0000 O   0  0  0  0  0  0  0  0  0  0  0  0
    2.1434   -1.2375    0.0000 C   0  0  0  0  0  0  0  0  0  0  0  0
    1.4289   -1.6500    0.0000 C   0  0  0  0  0  0  0  0  0  0  0  0
  1  2  1  0  0  0  0
  2  3  4  0  0  0  0
  3  4  4  0  0  0  0
  4  5  4  0  0  0  0
  5  6  4  0  0  0  0
  6  7  4  0  0  0  0
  7  8  1  0  0  0  0
  8  9  4  0  0  0  0
  9 10  4  0  0  0  0
 10 11  4  0  0  0  0
 11 12  1  0  0  0  0
 12 13  4  0  0  0  0
 13 14  4  0  0  0  0
 14 15  4  0  0  0  0
 15 16  4  0  0  0  0
 16 17  4  0  0  0  0
 12 17  4  0  0  0  0
 17 18  1  0  0  0  0
 11 19  4  0  0  0  0
 19 20  4  0  0  0  0
  8 20  4  0  0  0  0
  7 21  4  0  0  0  0
 21 22  1  0  0  0  0
 21 23  4  0  0  0  0
 23 24  1  0  0  0  0
 24 25  2  0  0  0  0
 24 26  1  0  0  0  0
 23 27  4  0  0  0  0
  5 27  4  0  0  0  0
 27 28  4  0  0  0  0
  2 28  4  0  0  0  0
M  END
> <IC50(uM)>
0.054

> <Outcome>
1.0

> <BindingDB ID>
51126191

> <BindingDB MonomerID>
50461877

> <BindingDB Ligand Name>
CHEMBL4224891

> <Curation/DataSource>
ChEMBL

> <Article DOI>
10.1021/acs.jmedchem.7b01862

> <PMID>
29727569

> <Patent Number>
?

> <Authors>
Madak, JT; Cuthbertson, CR; Miyata, Y; Tamura, S; Petrunak, EM; Stuckey, JA; Han, Y; He, M; Sun, D; Showalter, HD; Neamati, N

> <Link to Ligand in BindingDB>
http://www.bindingdb.org/bind/chemsearch/marvin/MolStructure.jsp?monomerid=50461877

> <Link to Ligand-Target Pair in BindingDB>
http://www.bindingdb.org/jsp/dbsearch/PrimarySearch_ki.jsp?energyterm=kJ/mole&tag=r21&monomerid=50461877&enzyme=Dihydroorotate+dehydrogenase&column=ki&startPg=0&Increment=50&submit=Search

> <PubChem CID>
145968746

> <PubChem SID>
433929142

$$$$

  Mrv2115 07222212352D          

 37 40  0  0  0  0            999 V2000
    0.6964   -1.0193    0.0000 C   0  0  0  0  0  0  0  0  0  0  0  0
    0.3608   -1.7730    0.0000 C   0  0  0  0  0  0  0  0  0  0  0  0
   -0.4597   -1.8592    0.0000 O   0  0  0  0  0  0  0  0  0  0  0  0
   -0.7952   -2.6129    0.0000 C   0  0  0  0  0  0  0  0  0  0  0  0
   -0.3103   -3.2804    0.0000 C   0  0  0  0  0  0  0  0  0  0  0  0
   -0.6459   -4.0340    0.0000 C   0  0  0  0  0  0  0  0  0  0  0  0
   -0.1610   -4.7015    0.0000 N   0  0  0  0  0  0  0  0  0  0  0  0
    0.6640   -4.7015    0.0000 N   0  0  0  0  0  0  0  0  0  0  0  0
    0.9190   -5.4861    0.0000 C   0  0  0  0  0  0  0  0  0  0  0  0
    1.7036   -5.7410    0.0000 C   0  0  0  0  0  0  0  0  0  0  0  0
    1.8751   -6.5480    0.0000 O   0  0  0  0  0  0  0  0  0  0  0  0
    2.3167   -5.1890    0.0000 O   0  0  0  0  0  0  0  0  0  0  0  0
    0.2515   -5.9710    0.0000 N   0  0  0  0  0  0  0  0  0  0  0  0
    0.2515   -6.7960    0.0000 C   0  0  0  0  0  0  0  0  0  0  0  0
    0.6640   -7.5105    0.0000 C   0  0  0  0  0  0  0  0  0  0  0  0
   -0.1610   -7.5105    0.0000 C   0  0  0  0  0  0  0  0  0  0  0  0
   -0.4159   -5.4861    0.0000 C   0  0  0  0  0  0  0  0  0  0  0  0
   -1.2005   -5.7410    0.0000 O   0  0  0  0  0  0  0  0  0  0  0  0
   -1.4664   -4.1203    0.0000 C   0  0  0  0  0  0  0  0  0  0  0  0
   -1.8019   -4.8739    0.0000 F   0  0  0  0  0  0  0  0  0  0  0  0
   -1.9513   -3.4528    0.0000 C   0  0  0  0  0  0  0  0  0  0  0  0
   -1.6157   -2.6992    0.0000 C   0  0  0  0  0  0  0  0  0  0  0  0
   -2.1006   -2.0317    0.0000 C   0  0  0  0  0  0  0  0  0  0  0  0
   -1.7651   -1.2780    0.0000 O   0  0  0  0  0  0  0  0  0  0  0  0
   -2.9211   -2.1180    0.0000 N   0  0  0  0  0  0  0  0  0  0  0  0
   -3.4060   -1.4505    0.0000 C   0  0  0  0  0  0  0  0  0  0  0  0
   -4.2265   -1.5367    0.0000 C   0  0  0  0  0  0  0  0  0  0  0  0
   -4.5621   -2.2904    0.0000 F   0  0  0  0  0  0  0  0  0  0  0  0
   -4.7114   -0.8693    0.0000 C   0  0  0  0  0  0  0  0  0  0  0  0
   -4.3759   -0.1156    0.0000 C   0  0  0  0  0  0  0  0  0  0  0  0
   -3.5554   -0.0294    0.0000 C   0  0  0  0  0  0  0  0  0  0  0  0
   -3.0705   -0.6968    0.0000 C   0  0  0  0  0  0  0  0  0  0  0  0
   -2.2500   -0.6106    0.0000 Cl  0  0  0  0  0  0  0  0  0  0  0  0
    0.8457   -2.4404    0.0000 C   0  0  0  0  0  0  0  0  0  0  0  0
    0.1783   -2.9254    0.0000 F   0  0  0  0  0  0  0  0  0  0  0  0
    1.5132   -1.9555    0.0000 F   0  0  0  0  0  0  0  0  0  0  0  0
    1.3306   -3.1079    0.0000 F   0  0  0  0  0  0  0  0  0  0  0  0
  1  2  1  0  0  0  0
  2  3  1  0  0  0  0
  3  4  1  0  0  0  0
  4  5  4  0  0  0  0
  5  6  4  0  0  0  0
  6  7  1  0  0  0  0
  7  8  4  0  0  0  0
  8  9  4  0  0  0  0
  9 10  1  0  0  0  0
 10 11  2  0  0  0  0
 10 12  1  0  0  0  0
  9 13  4  0  0  0  0
 13 14  1  0  0  0  0
 14 15  1  0  0  0  0
 15 16  1  0  0  0  0
 14 16  1  0  0  0  0
 13 17  4  0  0  0  0
  7 17  4  0  0  0  0
 17 18  2  0  0  0  0
  6 19  4  0  0  0  0
 19 20  1  0  0  0  0
 19 21  4  0  0  0  0
 21 22  4  0  0  0  0
  4 22  4  0  0  0  0
 22 23  1  0  0  0  0
 23 24  2  0  0  0  0
 23 25  1  0  0  0  0
 25 26  1  0  0  0  0
 26 27  4  0  0  0  0
 27 28  1  0  0  0  0
 27 29  4  0  0  0  0
 29 30  4  0  0  0  0
 30 31  4  0  0  0  0
 31 32  4  0  0  0  0
 26 32  4  0  0  0  0
 32 33  1  0  0  0  0
  2 34  1  0  0  0  0
 34 35  1  0  0  0  0
 34 36  1  0  0  0  0
 34 37  1  0  0  0  0
M  END
> <IC50(uM)>
0.014

> <Outcome>
1.0

> <BindingDB ID>
1098839; 972685

> <BindingDB MonomerID>
470563

> <BindingDB Ligand Name>
1-(4-[(2-chloro-6-fluorophenyl)carbamoyl]-2-fluoro-5-{[(2S)-1,1,1-trifluoropropan-2-yl]oxy}phenyl)-4-cyclopropyl-5-oxo-4,5-dihydro-1H-1,2,4-triazole-3-carboxylic acid::US10815215, Example 223::US11130745, Example 223; 1-(4-[(2-chloro-6-fluorophenyl)carbamoyl]-2-fluoro-5-{[(2S)-1,1,1-trifluoropropan-2-yl]oxy}phenyl)-4-cyclopropyl-5-oxo-4,5-dihydro-1H-1,2,4-triazole-3-carboxylic acid::US10815215, Example 223

> <Curation/DataSource>
US Patent

> <Article DOI>
?

> <PMID>
?

> <Patent Number>
US11130745; US10815215

> <Authors>
Gradl, SN; Nguyen, D; Eis, K; Gunther, J; Stellfeld, T; Janzer, A; Christian, S; Muller, T; Sheikh, SE; Sykes, DB; Ferrara, SJ; Krober, M; Merz, C; Niehues, M; Schafer, M; Zimmermann, K; Nising, CF; Gradl, SN; Nguyen, D; Eis, K; Gunther, J; Stellfeld, T; Janzer, A; Christian, S; Muller, T; Sheikh, SE; Zhou, HJ; Zhao, C; Sykes, DB; Ferrara, SJ; Liu, K; Krober, M; Merz, C; Niehues, M; Schafer, M; Zimmermann, K; Nising, CF

> <Link to Ligand in BindingDB>
http://www.bindingdb.org/bind/chemsearch/marvin/MolStructure.jsp?monomerid=470563

> <Link to Ligand-Target Pair in BindingDB>
http://www.bindingdb.org/jsp/dbsearch/PrimarySearch_ki.jsp?energyterm=kJ/mole&tag=r21&monomerid=470563&enzyme=Dihydroorotate+dehydrogenase&column=ki&startPg=0&Increment=50&submit=Search

> <PubChem CID>
134469988

> <PubChem SID>
441609739

$$$$

  Mrv2115 07222212352D          

 23 24  0  0  0  0            999 V2000
    0.7145   -1.2375    0.0000 C   0  0  0  0  0  0  0  0  0  0  0  0
    1.4289   -1.6500    0.0000 O   0  0  0  0  0  0  0  0  0  0  0  0
    1.4289   -2.4750    0.0000 C   0  0  0  0  0  0  0  0  0  0  0  0
    2.1434   -2.8875    0.0000 C   0  0  0  0  0  0  0  0  0  0  0  0
    2.1434   -3.7125    0.0000 C   0  0  0  0  0  0  0  0  0  0  0  0
    2.8579   -4.1250    0.0000 C   0  0  0  0  0  0  0  0  0  0  0  0
    3.5724   -3.7125    0.0000 C   0  0  0  0  0  0  0  0  0  0  0  0
    4.2868   -4.1250    0.0000 C   0  0  0  0  0  0  0  0  0  0  0  0
    5.0013   -3.7125    0.0000 C   0  0  0  0  0  0  0  0  0  0  0  0
    5.0013   -2.8875    0.0000 C   0  0  0  0  0  0  0  0  0  0  0  0
    5.7158   -2.4750    0.0000 O   0  0  0  0  0  0  0  0  0  0  0  0
    4.2868   -2.4750    0.0000 O   0  0  0  0  0  0  0  0  0  0  0  0
    5.7158   -4.1250    0.0000 N   0  0  0  0  0  0  0  0  0  0  0  0
    5.7158   -4.9500    0.0000 C   0  0  0  0  0  0  0  0  0  0  0  0
    6.4302   -5.3625    0.0000 O   0  0  0  0  0  0  0  0  0  0  0  0
    5.0013   -5.3625    0.0000 N   0  0  0  0  0  0  0  0  0  0  0  0
    4.2868   -4.9500    0.0000 C   0  0  0  0  0  0  0  0  0  0  0  0
    3.5724   -5.3625    0.0000 O   0  0  0  0  0  0  0  0  0  0  0  0
    1.4289   -4.1250    0.0000 C   0  0  0  0  0  0  0  0  0  0  0  0
    0.7145   -3.7125    0.0000 C   0  0  0  0  0  0  0  0  0  0  0  0
    0.0000   -4.1250    0.0000 O   0  0  0  0  0  0  0  0  0  0  0  0
   -0.7145   -3.7125    0.0000 C   0  0  0  0  0  0  0  0  0  0  0  0
    0.7145   -2.8875    0.0000 C   0  0  0  0  0  0  0  0  0  0  0  0
  1  2  1  0  0  0  0
  2  3  1  0  0  0  0
  3  4  4  0  0  0  0
  4  5  4  0  0  0  0
  5  6  1  0  0  0  0
  6  7  1  0  0  0  0
  7  8  1  0  0  0  0
  8  9  4  0  0  0  0
  9 10  1  0  0  0  0
 10 11  2  0  0  0  0
 10 12  1  0  0  0  0
  9 13  4  0  0  0  0
 13 14  4  0  0  0  0
 14 15  2  0  0  0  0
 14 16  4  0  0  0  0
 16 17  4  0  0  0  0
  8 17  4  0  0  0  0
 17 18  2  0  0  0  0
  5 19  4  0  0  0  0
 19 20  4  0  0  0  0
 20 21  1  0  0  0  0
 21 22  1  0  0  0  0
 20 23  4  0  0  0  0
  3 23  4  0  0  0  0
M  STY  2   1 DAT   2 DAT
M  SAL   1  1  13
M  SDT   1 MRV_IMPLICIT_H                                        
M  SDD   1     0.5304   -0.4125    DR    ALL  0       0  
M  SED   1 IMPL_H1
M  SAL   2  1  16
M  SDT   2 MRV_IMPLICIT_H                                        
M  SDD   2     0.6482   -0.4125    DR    ALL  0       0  
M  SED   2 IMPL_H1
M  END
> <IC50(uM)>
1.06

> <Outcome>
0.0

> <BindingDB ID>
50555215

> <BindingDB MonomerID>
50211691

> <BindingDB Ligand Name>
CHEMBL3889490

> <Curation/DataSource>
ChEMBL

> <Article DOI>
10.1016/j.bmc.2017.01.009

> <PMID>
28118956

> <Patent Number>
?

> <Authors>
Inaoka, DK; Iida, M; Hashimoto, S; Tabuchi, T; Kuranaga, T; Balogun, EO; Honma, T; Tanaka, A; Harada, S; Nara, T; Kita, K; Inoue, M

> <Link to Ligand in BindingDB>
http://www.bindingdb.org/bind/chemsearch/marvin/MolStructure.jsp?monomerid=50211691

> <Link to Ligand-Target Pair in BindingDB>
http://www.bindingdb.org/jsp/dbsearch/PrimarySearch_ki.jsp?energyterm=kJ/mole&tag=r21&monomerid=50211691&enzyme=Dihydroorotate+dehydrogenase&column=ki&startPg=0&Increment=50&submit=Search

> <PubChem CID>
134131421

> <PubChem SID>
375983034

$$$$

  Mrv2115 07222212352D          

 35 37  0  0  0  0            999 V2000
    0.7145   -3.7125    0.0000 C   0  0  0  0  0  0  0  0  0  0  0  0
    1.4289   -4.1250    0.0000 C   0  0  0  0  0  0  0  0  0  0  0  0
    2.1434   -3.7125    0.0000 O   0  0  0  0  0  0  0  0  0  0  0  0
    1.4289   -4.9500    0.0000 C   0  0  0  0  0  0  0  0  0  0  0  0
    0.7615   -5.4349    0.0000 N   0  0  0  0  0  0  0  0  0  0  0  0
    1.0164   -6.2195    0.0000 N   0  0  0  0  0  0  0  0  0  0  0  0
    0.5315   -6.8870    0.0000 C   0  0  0  0  0  0  0  0  0  0  0  0
    0.8671   -7.6407    0.0000 C   0  0  0  0  0  0  0  0  0  0  0  0
    0.3822   -8.3081    0.0000 C   0  0  0  0  0  0  0  0  0  0  0  0
    0.7177   -9.0618    0.0000 O   0  0  0  0  0  0  0  0  0  0  0  0
    1.5382   -9.1480    0.0000 C   0  0  0  0  0  0  0  0  0  0  0  0
    2.0231   -8.4806    0.0000 C   0  0  0  0  0  0  0  0  0  0  0  0
    1.8738   -9.9017    0.0000 C   0  0  0  0  0  0  0  0  0  0  0  0
    1.1201  -10.2372    0.0000 F   0  0  0  0  0  0  0  0  0  0  0  0
    2.6274   -9.5661    0.0000 F   0  0  0  0  0  0  0  0  0  0  0  0
    2.2093  -10.6554    0.0000 F   0  0  0  0  0  0  0  0  0  0  0  0
   -0.4383   -8.2219    0.0000 C   0  0  0  0  0  0  0  0  0  0  0  0
   -0.9232   -8.8893    0.0000 C   0  0  0  0  0  0  0  0  0  0  0  0
   -1.7437   -8.8031    0.0000 O   0  0  0  0  0  0  0  0  0  0  0  0
   -0.5877   -9.6430    0.0000 N   0  0  0  0  0  0  0  0  0  0  0  0
   -1.0726  -10.3104    0.0000 C   0  0  0  0  0  0  0  0  0  0  0  0
   -0.7371  -11.0641    0.0000 C   0  0  0  0  0  0  0  0  0  0  0  0
    0.0834  -11.1503    0.0000 F   0  0  0  0  0  0  0  0  0  0  0  0
   -1.2220  -11.7315    0.0000 C   0  0  0  0  0  0  0  0  0  0  0  0
   -2.0425  -11.6453    0.0000 C   0  0  0  0  0  0  0  0  0  0  0  0
   -2.3780  -10.8916    0.0000 C   0  0  0  0  0  0  0  0  0  0  0  0
   -1.8931  -10.2242    0.0000 C   0  0  0  0  0  0  0  0  0  0  0  0
   -2.2287   -9.4705    0.0000 Cl  0  0  0  0  0  0  0  0  0  0  0  0
   -0.7739   -7.4682    0.0000 C   0  0  0  0  0  0  0  0  0  0  0  0
   -0.2890   -6.8007    0.0000 C   0  0  0  0  0  0  0  0  0  0  0  0
   -0.6245   -6.0471    0.0000 F   0  0  0  0  0  0  0  0  0  0  0  0
    1.8414   -6.2195    0.0000 C   0  0  0  0  0  0  0  0  0  0  0  0
    2.3264   -6.8870    0.0000 O   0  0  0  0  0  0  0  0  0  0  0  0
    2.0964   -5.4349    0.0000 N   0  0  0  0  0  0  0  0  0  0  0  0
    2.8810   -5.1800    0.0000 C   0  0  0  0  0  0  0  0  0  0  0  0
  1  2  1  0  0  0  0
  2  3  1  0  0  0  0
  2  4  1  0  0  0  0
  4  5  4  0  0  0  0
  5  6  4  0  0  0  0
  6  7  1  0  0  0  0
  7  8  4  0  0  0  0
  8  9  4  0  0  0  0
  9 10  1  0  0  0  0
 10 11  1  0  0  0  0
 11 12  1  0  0  0  0
 11 13  1  0  0  0  0
 13 14  1  0  0  0  0
 13 15  1  0  0  0  0
 13 16  1  0  0  0  0
  9 17  4  0  0  0  0
 17 18  1  0  0  0  0
 18 19  2  0  0  0  0
 18 20  1  0  0  0  0
 20 21  1  0  0  0  0
 21 22  4  0  0  0  0
 22 23  1  0  0  0  0
 22 24  4  0  0  0  0
 24 25  4  0  0  0  0
 25 26  4  0  0  0  0
 26 27  4  0  0  0  0
 21 27  4  0  0  0  0
 27 28  1  0  0  0  0
 17 29  4  0  0  0  0
 29 30  4  0  0  0  0
  7 30  4  0  0  0  0
 30 31  1  0  0  0  0
  6 32  4  0  0  0  0
 32 33  2  0  0  0  0
 32 34  4  0  0  0  0
  4 34  4  0  0  0  0
 34 35  1  0  0  0  0
M  END
> <IC50(uM)>
0.015

> <Outcome>
1.0

> <BindingDB ID>
972580; 1098734

> <BindingDB MonomerID>
470456

> <BindingDB Ligand Name>
N-(2-chloro-6-fluorophenyl)-5-fluoro-4-{3-[(1S)-1-hydroxyethyl]-4-methyl-5-oxo-4,5-dihydro-1H-1,2,4-triazol-1-yl}-2-{[(2S)-1,1,1-trifluoropropan-2-yl]oxy}benzamide::US10815215, Example 122; N-(2-chloro-6-fluorophenyl)-5-fluoro-4-{3-[(1S)-1-hydroxyethyl]-4-methyl-5-oxo-4,5-dihydro-1H-1,2,4-triazol-1-yl}-2-{[(2S)-1,1,1-trifluoropropan-2-yl]oxy}benzamide::US10815215, Example 122::US11130745, Example 122

> <Curation/DataSource>
US Patent

> <Article DOI>
?

> <PMID>
?

> <Patent Number>
US10815215; US11130745

> <Authors>
Gradl, SN; Nguyen, D; Eis, K; Gunther, J; Stellfeld, T; Janzer, A; Christian, S; Muller, T; Sheikh, SE; Zhou, HJ; Zhao, C; Sykes, DB; Ferrara, SJ; Liu, K; Krober, M; Merz, C; Niehues, M; Schafer, M; Zimmermann, K; Nising, CF; Gradl, SN; Nguyen, D; Eis, K; Gunther, J; Stellfeld, T; Janzer, A; Christian, S; Muller, T; Sheikh, SE; Sykes, DB; Ferrara, SJ; Krober, M; Merz, C; Niehues, M; Schafer, M; Zimmermann, K; Nising, CF

> <Link to Ligand in BindingDB>
http://www.bindingdb.org/bind/chemsearch/marvin/MolStructure.jsp?monomerid=470456

> <Link to Ligand-Target Pair in BindingDB>
http://www.bindingdb.org/jsp/dbsearch/PrimarySearch_ki.jsp?energyterm=kJ/mole&tag=r21&monomerid=470456&enzyme=Dihydroorotate+dehydrogenase&column=ki&startPg=0&Increment=50&submit=Search

> <PubChem CID>
134470068

> <PubChem SID>
441609633

$$$$

  Mrv2115 07222212352D          

 16 17  0  0  0  0            999 V2000
   -0.6078   -1.2991    0.0000 O   0  0  0  0  0  0  0  0  0  0  0  0
   -1.3222   -1.7116    0.0000 C   0  0  0  0  0  0  0  0  0  0  0  0
   -2.0367   -1.2991    0.0000 N   0  0  0  0  0  0  0  0  0  0  0  0
   -2.0367   -0.4741    0.0000 C   0  0  0  0  0  0  0  0  0  0  0  0
   -2.7512   -0.0616    0.0000 C   0  0  0  0  0  0  0  0  0  0  0  0
   -3.4656   -0.4741    0.0000 C   0  0  0  0  0  0  0  0  0  0  0  0
   -4.1801   -0.0616    0.0000 C   0  0  0  0  0  0  0  0  0  0  0  0
   -4.1801    0.7634    0.0000 C   0  0  0  0  0  0  0  0  0  0  0  0
   -3.4656    1.1759    0.0000 C   0  0  0  0  0  0  0  0  0  0  0  0
   -2.7512    0.7634    0.0000 C   0  0  0  0  0  0  0  0  0  0  0  0
   -1.3222   -2.5366    0.0000 C   0  0  0  0  0  0  0  0  0  0  0  0
   -0.6548   -3.0215    0.0000 N   0  0  0  0  0  0  0  0  0  0  0  0
   -0.9097   -3.8062    0.0000 S   0  0  0  0  0  0  0  0  0  0  0  0
   -1.7347   -3.8062    0.0000 N   0  0  0  0  0  0  0  0  0  0  0  0
   -1.9897   -3.0215    0.0000 C   0  0  0  0  0  0  0  0  0  0  0  0
   -2.7743   -2.7666    0.0000 O   0  0  0  0  0  0  0  0  0  0  0  0
  1  2  2  0  0  0  0
  2  3  1  0  0  0  0
  3  4  1  0  0  0  0
  4  5  1  0  0  0  0
  5  6  4  0  0  0  0
  6  7  4  0  0  0  0
  7  8  4  0  0  0  0
  8  9  4  0  0  0  0
  9 10  4  0  0  0  0
  5 10  4  0  0  0  0
  2 11  1  0  0  0  0
 11 12  4  0  0  0  0
 12 13  4  0  0  0  0
 13 14  4  0  0  0  0
 14 15  4  0  0  0  0
 11 15  4  0  0  0  0
 15 16  1  0  0  0  0
M  END
> <IC50(uM)>
200.0

> <Outcome>
0.0

> <BindingDB ID>
51240998

> <BindingDB MonomerID>
50507732

> <BindingDB Ligand Name>
CHEMBL4436588

> <Curation/DataSource>
ChEMBL

> <Article DOI>
10.1016/j.ejmech.2018.11.044

> <PMID>
30529545

> <Patent Number>
?

> <Authors>
Pippione, AC; Sainas, S; Goyal, P; Fritzson, I; Cassiano, GC; Giraudo, A; Giorgis, M; Tavella, TA; Bagnati, R; Rolando, B; Caing-Carlsson, R; Costa, FTM; Andrade, CH; Al-Karadaghi, S; Boschi, D; Friemann, R; Lolli, ML

> <Link to Ligand in BindingDB>
http://www.bindingdb.org/bind/chemsearch/marvin/MolStructure.jsp?monomerid=50507732

> <Link to Ligand-Target Pair in BindingDB>
http://www.bindingdb.org/jsp/dbsearch/PrimarySearch_ki.jsp?energyterm=kJ/mole&tag=r21&monomerid=50507732&enzyme=Dihydroorotate+dehydrogenase&column=ki&startPg=0&Increment=50&submit=Search

> <PubChem CID>
155511813

> <PubChem SID>
440716317

$$$$

  Mrv2115 07222212352D          

 17 18  0  0  0  0            999 V2000
    2.0367   -0.4741    0.0000 C   0  0  0  0  0  0  0  0  0  0  0  0
    2.0367   -1.2991    0.0000 C   0  0  0  0  0  0  0  0  0  0  0  0
    2.7041   -1.7840    0.0000 C   0  0  0  0  0  0  0  0  0  0  0  0
    2.4492   -2.5687    0.0000 C   0  0  0  0  0  0  0  0  0  0  0  0
    2.9341   -3.2361    0.0000 N   0  0  0  0  0  0  0  0  0  0  0  0
    2.5986   -3.9898    0.0000 C   0  0  0  0  0  0  0  0  0  0  0  0
    3.0835   -4.6572    0.0000 C   0  0  0  0  0  0  0  0  0  0  0  0
    2.7479   -5.4109    0.0000 C   0  0  0  0  0  0  0  0  0  0  0  0
    1.9275   -5.4971    0.0000 C   0  0  0  0  0  0  0  0  0  0  0  0
    1.5919   -6.2508    0.0000 C   0  0  0  0  0  0  0  0  0  0  0  0
    1.2563   -7.0045    0.0000 F   0  0  0  0  0  0  0  0  0  0  0  0
    0.8382   -5.9152    0.0000 F   0  0  0  0  0  0  0  0  0  0  0  0
    2.3456   -6.5863    0.0000 F   0  0  0  0  0  0  0  0  0  0  0  0
    1.4425   -4.8297    0.0000 C   0  0  0  0  0  0  0  0  0  0  0  0
    1.7781   -4.0760    0.0000 C   0  0  0  0  0  0  0  0  0  0  0  0
    1.6242   -2.5687    0.0000 N   0  0  0  0  0  0  0  0  0  0  0  0
    1.3693   -1.7840    0.0000 N   0  0  0  0  0  0  0  0  0  0  0  0
  1  2  1  0  0  0  0
  2  3  4  0  0  0  0
  3  4  4  0  0  0  0
  4  5  1  0  0  0  0
  5  6  1  0  0  0  0
  6  7  4  0  0  0  0
  7  8  4  0  0  0  0
  8  9  4  0  0  0  0
  9 10  1  0  0  0  0
 10 11  1  0  0  0  0
 10 12  1  0  0  0  0
 10 13  1  0  0  0  0
  9 14  4  0  0  0  0
 14 15  4  0  0  0  0
  6 15  4  0  0  0  0
  4 16  4  0  0  0  0
 16 17  4  0  0  0  0
  2 17  4  0  0  0  0
M  STY  1   1 DAT
M  SAL   1  1  16
M  SDT   1 MRV_IMPLICIT_H                                        
M  SDD   1     0.5304   -0.4125    DR    ALL  0       0  
M  SED   1 IMPL_H1
M  END
> <IC50(uM)>
16.5

> <Outcome>
0.0

> <BindingDB ID>
50786771

> <BindingDB MonomerID>
50066598

> <BindingDB Ligand Name>
(5-Methyl-1H-pyrazol-3-yl)-(4-trifluoromethyl-phenyl)-amine::CHEMBL116206

> <Curation/DataSource>
ChEMBL

> <Article DOI>
10.1021/jm981028c

> <PMID>
9719606

> <Patent Number>
?

> <Authors>
Papageorgiou, C; Albert, R; Floersheim, P; Lemaire, M; Bitch, F; Weber, HP; Andersen, E; Hungerford, V; Schreier, MH

> <Link to Ligand in BindingDB>
http://www.bindingdb.org/bind/chemsearch/marvin/MolStructure.jsp?monomerid=50066598

> <Link to Ligand-Target Pair in BindingDB>
http://www.bindingdb.org/jsp/dbsearch/PrimarySearch_ki.jsp?energyterm=kJ/mole&tag=r21&monomerid=50066598&enzyme=Dihydroorotate+dehydrogenase&column=ki&startPg=0&Increment=50&submit=Search

> <PubChem CID>
10657722

> <PubChem SID>
103961218

$$$$

  Mrv2115 07222212352D          

 24 26  0  0  0  0            999 V2000
    0.0000   -4.1250    0.0000 O   0  0  0  0  0  0  0  0  0  0  0  0
    0.7145   -3.7125    0.0000 C   0  0  0  0  0  0  0  0  0  0  0  0
    1.4289   -4.1250    0.0000 N   0  0  0  0  0  0  0  0  0  0  0  0
    1.4289   -4.9500    0.0000 C   0  0  0  0  0  0  0  0  0  0  0  0
    0.7145   -5.3625    0.0000 C   0  0  0  0  0  0  0  0  0  0  0  0
    0.7145   -6.1875    0.0000 C   0  0  0  0  0  0  0  0  0  0  0  0
    1.4289   -6.6000    0.0000 C   0  0  0  0  0  0  0  0  0  0  0  0
    2.1434   -6.1875    0.0000 C   0  0  0  0  0  0  0  0  0  0  0  0
    2.1434   -5.3625    0.0000 C   0  0  0  0  0  0  0  0  0  0  0  0
    2.8579   -4.9500    0.0000 C   0  0  0  0  0  0  0  0  0  0  0  0
    2.8579   -4.1250    0.0000 O   0  0  0  0  0  0  0  0  0  0  0  0
    3.5724   -5.3625    0.0000 O   0  0  0  0  0  0  0  0  0  0  0  0
    0.7145   -2.8875    0.0000 C   0  0  0  0  0  0  0  0  0  0  0  0
    0.0000   -2.4750    0.0000 C   0  0  0  0  0  0  0  0  0  0  0  0
    0.0000   -1.6500    0.0000 C   0  0  0  0  0  0  0  0  0  0  0  0
    0.7145   -1.2375    0.0000 C   0  0  0  0  0  0  0  0  0  0  0  0
    0.7145   -0.4125    0.0000 C   0  0  0  0  0  0  0  0  0  0  0  0
    0.0000    0.0000    0.0000 C   0  0  0  0  0  0  0  0  0  0  0  0
    0.0000    0.8250    0.0000 C   0  0  0  0  0  0  0  0  0  0  0  0
    0.7145    1.2375    0.0000 C   0  0  0  0  0  0  0  0  0  0  0  0
    1.4289    0.8250    0.0000 C   0  0  0  0  0  0  0  0  0  0  0  0
    1.4289    0.0000    0.0000 C   0  0  0  0  0  0  0  0  0  0  0  0
    1.4289   -1.6500    0.0000 C   0  0  0  0  0  0  0  0  0  0  0  0
    1.4289   -2.4750    0.0000 C   0  0  0  0  0  0  0  0  0  0  0  0
  1  2  2  0  0  0  0
  2  3  1  0  0  0  0
  3  4  1  0  0  0  0
  4  5  4  0  0  0  0
  5  6  4  0  0  0  0
  6  7  4  0  0  0  0
  7  8  4  0  0  0  0
  8  9  4  0  0  0  0
  4  9  4  0  0  0  0
  9 10  1  0  0  0  0
 10 11  2  0  0  0  0
 10 12  1  0  0  0  0
  2 13  1  0  0  0  0
 13 14  4  0  0  0  0
 14 15  4  0  0  0  0
 15 16  4  0  0  0  0
 16 17  1  0  0  0  0
 17 18  4  0  0  0  0
 18 19  4  0  0  0  0
 19 20  4  0  0  0  0
 20 21  4  0  0  0  0
 21 22  4  0  0  0  0
 17 22  4  0  0  0  0
 16 23  4  0  0  0  0
 23 24  4  0  0  0  0
 13 24  4  0  0  0  0
M  END
> <IC50(uM)>
5.0

> <Outcome>
0.0

> <BindingDB ID>
29199

> <BindingDB MonomerID>
16094

> <BindingDB Ligand Name>
2-[(4-phenylbenzene)amido]benzoic acid::2-[(biphenyl-4-ylcarbonyl)amino]benzoic acid::Inhibitor 2

> <Curation/DataSource>
Curated from the literature by BindingDB

> <Article DOI>
10.1016/j.bmcl.2005.09.045

> <PMID>
16236496

> <Patent Number>
?

> <Authors>
Heikkila, T; Thirumalairajan, S; Davies, M; Parsons, MR; McConkey, AG; Fishwick, CW; Johnson, AP

> <Link to Ligand in BindingDB>
http://www.bindingdb.org/bind/chemsearch/marvin/MolStructure.jsp?monomerid=16094

> <Link to Ligand-Target Pair in BindingDB>
http://www.bindingdb.org/jsp/dbsearch/PrimarySearch_ki.jsp?energyterm=kJ/mole&tag=r21&monomerid=16094&enzyme=Dihydroorotate+dehydrogenase&column=ki&startPg=0&Increment=50&submit=Search

> <PubChem CID>
914489

> <PubChem SID>
46516355

$$$$

  Mrv2115 07222212352D          

 29 31  0  0  0  0            999 V2000
   -2.1434   11.7161    0.0000 C   0  0  0  0  0  0  0  0  0  0  0  0
   -2.1434   10.8911    0.0000 O   0  0  0  0  0  0  0  0  0  0  0  0
   -1.4289   10.4786    0.0000 C   0  0  0  0  0  0  0  0  0  0  0  0
   -0.7145   10.8911    0.0000 C   0  0  0  0  0  0  0  0  0  0  0  0
   -0.0000   10.4786    0.0000 C   0  0  0  0  0  0  0  0  0  0  0  0
   -0.0000    9.6536    0.0000 C   0  0  0  0  0  0  0  0  0  0  0  0
   -0.7145    9.2411    0.0000 C   0  0  0  0  0  0  0  0  0  0  0  0
   -0.7145    8.4161    0.0000 C   0  0  0  0  0  0  0  0  0  0  0  0
   -0.0000    8.0036    0.0000 C   0  0  0  0  0  0  0  0  0  0  0  0
   -0.0000    7.1786    0.0000 C   0  0  0  0  0  0  0  0  0  0  0  0
   -0.7145    6.7661    0.0000 C   0  0  0  0  0  0  0  0  0  0  0  0
   -0.7145    5.9411    0.0000 N   0  0  0  0  0  0  0  0  0  0  0  0
   -0.0000    5.5286    0.0000 C   0  0  0  0  0  0  0  0  0  0  0  0
    0.7145    5.9411    0.0000 O   0  0  0  0  0  0  0  0  0  0  0  0
   -0.0000    4.7036    0.0000 C   0  0  0  0  0  0  0  0  0  0  0  0
    0.6674    4.2187    0.0000 C   0  0  0  0  0  0  0  0  0  0  0  0
    0.4125    3.4340    0.0000 C   0  0  0  0  0  0  0  0  0  0  0  0
    0.8974    2.7666    0.0000 C   0  0  0  0  0  0  0  0  0  0  0  0
    1.7179    2.8528    0.0000 O   0  0  0  0  0  0  0  0  0  0  0  0
    0.5619    2.0129    0.0000 O   0  0  0  0  0  0  0  0  0  0  0  0
   -0.4125    3.4340    0.0000 S   0  0  0  0  0  0  0  0  0  0  0  0
   -0.6674    4.2187    0.0000 C   0  0  0  0  0  0  0  0  0  0  0  0
   -1.4521    4.4736    0.0000 C   0  0  0  0  0  0  0  0  0  0  0  0
   -1.6236    5.2806    0.0000 O   0  0  0  0  0  0  0  0  0  0  0  0
   -2.0652    3.9216    0.0000 O   0  0  0  0  0  0  0  0  0  0  0  0
   -1.4289    7.1786    0.0000 C   0  0  0  0  0  0  0  0  0  0  0  0
   -2.1434    6.7661    0.0000 F   0  0  0  0  0  0  0  0  0  0  0  0
   -1.4289    8.0036    0.0000 C   0  0  0  0  0  0  0  0  0  0  0  0
   -1.4289    9.6536    0.0000 C   0  0  0  0  0  0  0  0  0  0  0  0
  1  2  1  0  0  0  0
  2  3  1  0  0  0  0
  3  4  4  0  0  0  0
  4  5  4  0  0  0  0
  5  6  4  0  0  0  0
  6  7  4  0  0  0  0
  7  8  1  0  0  0  0
  8  9  4  0  0  0  0
  9 10  4  0  0  0  0
 10 11  4  0  0  0  0
 11 12  1  0  0  0  0
 12 13  1  0  0  0  0
 13 14  2  0  0  0  0
 13 15  1  0  0  0  0
 15 16  4  0  0  0  0
 16 17  4  0  0  0  0
 17 18  1  0  0  0  0
 18 19  2  0  0  0  0
 18 20  1  0  0  0  0
 17 21  4  0  0  0  0
 21 22  4  0  0  0  0
 15 22  4  0  0  0  0
 22 23  1  0  0  0  0
 23 24  2  0  0  0  0
 23 25  1  0  0  0  0
 11 26  4  0  0  0  0
 26 27  1  0  0  0  0
 26 28  4  0  0  0  0
  8 28  4  0  0  0  0
  7 29  4  0  0  0  0
  3 29  4  0  0  0  0
M  END
> <IC50(uM)>
1.0

> <Outcome>
1.0

> <BindingDB ID>
29226

> <BindingDB MonomerID>
16123

> <BindingDB Ligand Name>
3-{[2-fluoro-4-(3-methoxyphenyl)phenyl]carbamoyl}thiophene-2,5-dicarboxylic acid::Biphenyl-4-ylcarbamoyl Thiophene Analog 14

> <Curation/DataSource>
Curated from the literature by BindingDB

> <Article DOI>
10.1016/j.bmcl.2005.10.011

> <PMID>
16246558

> <Patent Number>
?

> <Authors>
Leban, J; Kralik, M; Mies, J; Baumgartner, R; Gassen, M; Tasler, S

> <Link to Ligand in BindingDB>
http://www.bindingdb.org/bind/chemsearch/marvin/MolStructure.jsp?monomerid=16123

> <Link to Ligand-Target Pair in BindingDB>
http://www.bindingdb.org/jsp/dbsearch/PrimarySearch_ki.jsp?energyterm=kJ/mole&tag=r21&monomerid=16123&enzyme=Dihydroorotate+Dehydrogenase+%28DHODH%29&column=ki&startPg=0&Increment=50&submit=Search

> <PubChem CID>
23647306

> <PubChem SID>
46516382

$$$$

  Mrv2115 07222212352D          

 23 25  0  0  0  0            999 V2000
    0.0000   -1.6500    0.0000 C   0  0  0  0  0  0  0  0  0  0  0  0
    0.7145   -1.2375    0.0000 C   0  0  0  0  0  0  0  0  0  0  0  0
    0.7145   -0.4125    0.0000 C   0  0  0  0  0  0  0  0  0  0  0  0
    1.4289    0.0000    0.0000 C   0  0  0  0  0  0  0  0  0  0  0  0
    1.4289    0.8250    0.0000 C   0  0  0  0  0  0  0  0  0  0  0  0
    2.1434   -0.4125    0.0000 C   0  0  0  0  0  0  0  0  0  0  0  0
    2.8579    0.0000    0.0000 N   0  0  0  0  0  0  0  0  0  0  0  0
    3.5724   -0.4125    0.0000 C   0  0  0  0  0  0  0  0  0  0  0  0
    4.2868   -0.0000    0.0000 C   0  0  0  0  0  0  0  0  0  0  0  0
    4.2868    0.8250    0.0000 C   0  0  0  0  0  0  0  0  0  0  0  0
    5.0013    1.2375    0.0000 C   0  0  0  0  0  0  0  0  0  0  0  0
    5.7158    0.8250    0.0000 C   0  0  0  0  0  0  0  0  0  0  0  0
    6.4302    1.2375    0.0000 Cl  0  0  0  0  0  0  0  0  0  0  0  0
    5.7158   -0.0000    0.0000 C   0  0  0  0  0  0  0  0  0  0  0  0
    5.0013   -0.4125    0.0000 C   0  0  0  0  0  0  0  0  0  0  0  0
    3.5724   -1.2375    0.0000 C   0  0  0  0  0  0  0  0  0  0  0  0
    4.2868   -1.6500    0.0000 O   0  0  0  0  0  0  0  0  0  0  0  0
    2.8579   -1.6500    0.0000 C   0  0  0  0  0  0  0  0  0  0  0  0
    2.8579   -2.4750    0.0000 C   0  0  0  0  0  0  0  0  0  0  0  0
    2.1434   -2.8875    0.0000 O   0  0  0  0  0  0  0  0  0  0  0  0
    3.5724   -2.8875    0.0000 O   0  0  0  0  0  0  0  0  0  0  0  0
    2.1434   -1.2375    0.0000 C   0  0  0  0  0  0  0  0  0  0  0  0
    1.4289   -1.6500    0.0000 C   0  0  0  0  0  0  0  0  0  0  0  0
  1  2  1  0  0  0  0
  2  3  4  0  0  0  0
  3  4  4  0  0  0  0
  4  5  1  0  0  0  0
  4  6  4  0  0  0  0
  6  7  4  0  0  0  0
  7  8  4  0  0  0  0
  8  9  1  0  0  0  0
  9 10  4  0  0  0  0
 10 11  4  0  0  0  0
 11 12  4  0  0  0  0
 12 13  1  0  0  0  0
 12 14  4  0  0  0  0
 14 15  4  0  0  0  0
  9 15  4  0  0  0  0
  8 16  4  0  0  0  0
 16 17  1  0  0  0  0
 16 18  4  0  0  0  0
 18 19  1  0  0  0  0
 19 20  2  0  0  0  0
 19 21  1  0  0  0  0
 18 22  4  0  0  0  0
  6 22  4  0  0  0  0
 22 23  4  0  0  0  0
  2 23  4  0  0  0  0
M  END
> <IC50(uM)>
4.9

> <Outcome>
0.0

> <BindingDB ID>
50841897

> <BindingDB MonomerID>
50201920

> <BindingDB Ligand Name>
2-(4-chlorophenyl)-3-hydroxy-6,8-dimethylquinoline-4-carboxylicacid::CHEMBL375425

> <Curation/DataSource>
ChEMBL

> <Article DOI>
10.1021/jm0602256

> <PMID>
17201408

> <Patent Number>
?

> <Authors>
Kaila, N; Janz, K; DeBernardo, S; Bedard, PW; Camphausen, RT; Tam, S; Tsao, DH; Keith, JC; Nickerson-Nutter, C; Shilling, A; Young-Sciame, R; Wang, Q

> <Link to Ligand in BindingDB>
http://www.bindingdb.org/bind/chemsearch/marvin/MolStructure.jsp?monomerid=50201920

> <Link to Ligand-Target Pair in BindingDB>
http://www.bindingdb.org/jsp/dbsearch/PrimarySearch_ki.jsp?energyterm=kJ/mole&tag=r21&monomerid=50201920&enzyme=Dihydroorotate+dehydrogenase&column=ki&startPg=0&Increment=50&submit=Search

> <PubChem CID>
16100015

> <PubChem SID>
104081571

$$$$

  Mrv2115 07222212352D          

 27 30  0  0  0  0            999 V2000
    0.0000   -1.6500    0.0000 C   0  0  0  0  0  0  0  0  0  0  0  0
    0.7145   -1.2375    0.0000 C   0  0  0  0  0  0  0  0  0  0  0  0
    0.7145   -0.4125    0.0000 C   0  0  0  0  0  0  0  0  0  0  0  0
    0.0000    0.0000    0.0000 C   0  0  0  0  0  0  0  0  0  0  0  0
   -0.7145   -0.4125    0.0000 C   0  0  0  0  0  0  0  0  0  0  0  0
   -1.4289    0.0000    0.0000 C   0  0  0  0  0  0  0  0  0  0  0  0
   -1.4289    0.8250    0.0000 C   0  0  0  0  0  0  0  0  0  0  0  0
   -2.1434    1.2375    0.0000 C   0  0  0  0  0  0  0  0  0  0  0  0
   -2.8579    0.8250    0.0000 C   0  0  0  0  0  0  0  0  0  0  0  0
   -3.5724    1.2375    0.0000 C   0  0  0  0  0  0  0  0  0  0  0  0
   -3.5724    2.0625    0.0000 C   0  0  0  0  0  0  0  0  0  0  0  0
   -2.8579    2.4750    0.0000 C   0  0  0  0  0  0  0  0  0  0  0  0
   -2.1434    2.0625    0.0000 C   0  0  0  0  0  0  0  0  0  0  0  0
   -0.7145    1.2375    0.0000 C   0  0  0  0  0  0  0  0  0  0  0  0
    0.0000    0.8250    0.0000 C   0  0  0  0  0  0  0  0  0  0  0  0
    1.4289    0.0000    0.0000 N   0  0  0  0  0  0  0  0  0  0  0  0
    2.1434   -0.4125    0.0000 C   0  0  0  0  0  0  0  0  0  0  0  0
    2.8579    0.0000    0.0000 C   0  0  0  0  0  0  0  0  0  0  0  0
    3.5724   -0.4125    0.0000 C   0  0  0  0  0  0  0  0  0  0  0  0
    3.5724   -1.2375    0.0000 C   0  0  0  0  0  0  0  0  0  0  0  0
    4.2868   -1.6500    0.0000 F   0  0  0  0  0  0  0  0  0  0  0  0
    2.8579   -1.6500    0.0000 C   0  0  0  0  0  0  0  0  0  0  0  0
    2.1434   -1.2375    0.0000 C   0  0  0  0  0  0  0  0  0  0  0  0
    1.4289   -1.6500    0.0000 C   0  0  0  0  0  0  0  0  0  0  0  0
    1.4289   -2.4750    0.0000 C   0  0  0  0  0  0  0  0  0  0  0  0
    0.7145   -2.8875    0.0000 O   0  0  0  0  0  0  0  0  0  0  0  0
    2.1434   -2.8875    0.0000 O   0  0  0  0  0  0  0  0  0  0  0  0
  1  2  1  0  0  0  0
  2  3  4  0  0  0  0
  3  4  1  0  0  0  0
  4  5  4  0  0  0  0
  5  6  4  0  0  0  0
  6  7  4  0  0  0  0
  7  8  1  0  0  0  0
  8  9  4  0  0  0  0
  9 10  4  0  0  0  0
 10 11  4  0  0  0  0
 11 12  4  0  0  0  0
 12 13  4  0  0  0  0
  8 13  4  0  0  0  0
  7 14  4  0  0  0  0
 14 15  4  0  0  0  0
  4 15  4  0  0  0  0
  3 16  4  0  0  0  0
 16 17  4  0  0  0  0
 17 18  4  0  0  0  0
 18 19  4  0  0  0  0
 19 20  4  0  0  0  0
 20 21  1  0  0  0  0
 20 22  4  0  0  0  0
 22 23  4  0  0  0  0
 17 23  4  0  0  0  0
 23 24  4  0  0  0  0
  2 24  4  0  0  0  0
 24 25  1  0  0  0  0
 25 26  2  0  0  0  0
 25 27  1  0  0  0  0
M  END
> <IC50(uM)>
0.007

> <Outcome>
1.0

> <BindingDB ID>
50841892

> <BindingDB MonomerID>
50201925

> <BindingDB Ligand Name>
2-BIPHENYL-4-YL-6-FLUORO-3-METHYL-QUINOLINE-4-CARBOXYLIC ACID::CHEMBL220467

> <Curation/DataSource>
ChEMBL

> <Article DOI>
10.1021/jm0602256

> <PMID>
17201408

> <Patent Number>
?

> <Authors>
Kaila, N; Janz, K; DeBernardo, S; Bedard, PW; Camphausen, RT; Tam, S; Tsao, DH; Keith, JC; Nickerson-Nutter, C; Shilling, A; Young-Sciame, R; Wang, Q

> <Link to Ligand in BindingDB>
http://www.bindingdb.org/bind/chemsearch/marvin/MolStructure.jsp?monomerid=50201925

> <Link to Ligand-Target Pair in BindingDB>
http://www.bindingdb.org/jsp/dbsearch/PrimarySearch_ki.jsp?energyterm=kJ/mole&tag=r21&monomerid=50201925&enzyme=Dihydroorotate+dehydrogenase&column=ki&startPg=0&Increment=50&submit=Search

> <PubChem CID>
1543

> <PubChem SID>
104081576

$$$$

  Mrv2115 07222212352D          

 26 28  0  0  0  0            999 V2000
   -2.1434   11.7161    0.0000 C   0  0  0  0  0  0  0  0  0  0  0  0
   -2.1434   10.8911    0.0000 O   0  0  0  0  0  0  0  0  0  0  0  0
   -1.4289   10.4786    0.0000 C   0  0  0  0  0  0  0  0  0  0  0  0
   -0.7145   10.8911    0.0000 C   0  0  0  0  0  0  0  0  0  0  0  0
   -0.0000   10.4786    0.0000 C   0  0  0  0  0  0  0  0  0  0  0  0
   -0.0000    9.6536    0.0000 C   0  0  0  0  0  0  0  0  0  0  0  0
   -0.7145    9.2411    0.0000 C   0  0  0  0  0  0  0  0  0  0  0  0
   -0.7145    8.4161    0.0000 C   0  0  0  0  0  0  0  0  0  0  0  0
   -0.0000    8.0036    0.0000 C   0  0  0  0  0  0  0  0  0  0  0  0
   -0.0000    7.1786    0.0000 C   0  0  0  0  0  0  0  0  0  0  0  0
   -0.7145    6.7661    0.0000 C   0  0  0  0  0  0  0  0  0  0  0  0
   -0.7145    5.9411    0.0000 N   0  0  0  0  0  0  0  0  0  0  0  0
   -0.0000    5.5286    0.0000 C   0  0  0  0  0  0  0  0  0  0  0  0
    0.7145    5.9411    0.0000 O   0  0  0  0  0  0  0  0  0  0  0  0
   -0.0000    4.7036    0.0000 C   0  0  0  0  0  0  0  0  0  0  0  0
    0.6674    4.2187    0.0000 C   0  0  0  0  0  0  0  0  0  0  0  0
    1.4521    4.4736    0.0000 C   0  0  0  0  0  0  0  0  0  0  0  0
    1.6236    5.2806    0.0000 O   0  0  0  0  0  0  0  0  0  0  0  0
    2.0652    3.9216    0.0000 O   0  0  0  0  0  0  0  0  0  0  0  0
    0.4125    3.4340    0.0000 C   0  0  0  0  0  0  0  0  0  0  0  0
   -0.4125    3.4340    0.0000 S   0  0  0  0  0  0  0  0  0  0  0  0
   -0.6674    4.2187    0.0000 C   0  0  0  0  0  0  0  0  0  0  0  0
   -1.4289    7.1786    0.0000 C   0  0  0  0  0  0  0  0  0  0  0  0
   -2.1434    6.7661    0.0000 F   0  0  0  0  0  0  0  0  0  0  0  0
   -1.4289    8.0036    0.0000 C   0  0  0  0  0  0  0  0  0  0  0  0
   -1.4289    9.6536    0.0000 C   0  0  0  0  0  0  0  0  0  0  0  0
  1  2  1  0  0  0  0
  2  3  1  0  0  0  0
  3  4  4  0  0  0  0
  4  5  4  0  0  0  0
  5  6  4  0  0  0  0
  6  7  4  0  0  0  0
  7  8  1  0  0  0  0
  8  9  4  0  0  0  0
  9 10  4  0  0  0  0
 10 11  4  0  0  0  0
 11 12  1  0  0  0  0
 12 13  1  0  0  0  0
 13 14  2  0  0  0  0
 13 15  1  0  0  0  0
 15 16  2  0  0  0  0
 16 17  1  0  0  0  0
 17 18  2  0  0  0  0
 17 19  1  0  0  0  0
 16 20  1  0  0  0  0
 20 21  1  0  0  0  0
 21 22  1  0  0  0  0
 15 22  1  0  0  0  0
 11 23  4  0  0  0  0
 23 24  1  0  0  0  0
 23 25  4  0  0  0  0
  8 25  4  0  0  0  0
  7 26  4  0  0  0  0
  3 26  4  0  0  0  0
M  END
> <IC50(uM)>
0.131

> <Outcome>
1.0

> <BindingDB ID>
50319881

> <BindingDB MonomerID>
50173149

> <BindingDB Ligand Name>
4-(3-Fluoro-3'-methoxy-biphenyl-4-ylcarbamoyl)-2,5-dihydro-thiophene-3-carboxylic acid::CHEMBL194023

> <Curation/DataSource>
ChEMBL

> <Article DOI>
10.1016/j.bmcl.2005.07.053

> <PMID>
16143532

> <Patent Number>
?

> <Authors>
Leban, J; Kralik, M; Mies, J; Gassen, M; Tentschert, K; Baumgartner, R

> <Link to Ligand in BindingDB>
http://www.bindingdb.org/bind/chemsearch/marvin/MolStructure.jsp?monomerid=50173149

> <Link to Ligand-Target Pair in BindingDB>
http://www.bindingdb.org/jsp/dbsearch/PrimarySearch_ki.jsp?energyterm=kJ/mole&tag=r21&monomerid=50173149&enzyme=Dihydroorotate+dehydrogenase&column=ki&startPg=0&Increment=50&submit=Search

> <PubChem CID>
44403235

> <PubChem SID>
104059120

$$$$

  Mrv2115 07222212352D          

 36 39  0  0  0  0            999 V2000
   -3.2083    2.1568    0.0000 C   0  0  0  0  0  0  0  0  0  0  0  0
   -2.7958    1.4423    0.0000 C   0  0  0  0  0  0  0  0  0  0  0  0
   -3.2083    0.7279    0.0000 O   0  0  0  0  0  0  0  0  0  0  0  0
   -2.7958    0.0134    0.0000 C   0  0  0  0  0  0  0  0  0  0  0  0
   -1.9708    0.0134    0.0000 C   0  0  0  0  0  0  0  0  0  0  0  0
   -1.5583   -0.7011    0.0000 C   0  0  0  0  0  0  0  0  0  0  0  0
   -0.7333   -0.7011    0.0000 N   0  0  0  0  0  0  0  0  0  0  0  0
   -0.2483   -1.3685    0.0000 N   0  0  0  0  0  0  0  0  0  0  0  0
    0.5363   -1.1136    0.0000 C   0  0  0  0  0  0  0  0  0  0  0  0
    0.5363   -0.2886    0.0000 N   0  0  0  0  0  0  0  0  0  0  0  0
   -0.2483   -0.0336    0.0000 C   0  0  0  0  0  0  0  0  0  0  0  0
   -0.5033    0.7510    0.0000 O   0  0  0  0  0  0  0  0  0  0  0  0
    1.1813    0.2258    0.0000 C   0  0  0  0  0  0  0  0  0  0  0  0
    1.9856    0.0422    0.0000 C   0  0  0  0  0  0  0  0  0  0  0  0
    2.3436   -0.7011    0.0000 C   0  0  0  0  0  0  0  0  0  0  0  0
    1.9856   -1.4444    0.0000 O   0  0  0  0  0  0  0  0  0  0  0  0
    1.1813   -1.6280    0.0000 C   0  0  0  0  0  0  0  0  0  0  0  0
   -1.9708   -1.4156    0.0000 C   0  0  0  0  0  0  0  0  0  0  0  0
   -1.5583   -2.1300    0.0000 F   0  0  0  0  0  0  0  0  0  0  0  0
   -2.7958   -1.4156    0.0000 C   0  0  0  0  0  0  0  0  0  0  0  0
   -3.2083   -0.7011    0.0000 C   0  0  0  0  0  0  0  0  0  0  0  0
   -4.0333   -0.7011    0.0000 C   0  0  0  0  0  0  0  0  0  0  0  0
   -4.4458    0.0134    0.0000 O   0  0  0  0  0  0  0  0  0  0  0  0
   -4.4458   -1.4156    0.0000 N   0  0  0  0  0  0  0  0  0  0  0  0
   -5.2708   -1.4156    0.0000 C   0  0  0  0  0  0  0  0  0  0  0  0
   -5.6833   -2.1300    0.0000 C   0  0  0  0  0  0  0  0  0  0  0  0
   -5.2708   -2.8445    0.0000 F   0  0  0  0  0  0  0  0  0  0  0  0
   -6.5083   -2.1300    0.0000 C   0  0  0  0  0  0  0  0  0  0  0  0
   -6.9208   -1.4156    0.0000 C   0  0  0  0  0  0  0  0  0  0  0  0
   -6.5083   -0.7011    0.0000 C   0  0  0  0  0  0  0  0  0  0  0  0
   -5.6833   -0.7011    0.0000 C   0  0  0  0  0  0  0  0  0  0  0  0
   -5.2708    0.0134    0.0000 F   0  0  0  0  0  0  0  0  0  0  0  0
   -1.9708    1.4423    0.0000 C   0  0  0  0  0  0  0  0  0  0  0  0
   -1.9708    0.6173    0.0000 F   0  0  0  0  0  0  0  0  0  0  0  0
   -1.9708    2.2673    0.0000 F   0  0  0  0  0  0  0  0  0  0  0  0
   -1.1458    1.4423    0.0000 F   0  0  0  0  0  0  0  0  0  0  0  0
  1  2  1  0  0  0  0
  2  3  1  0  0  0  0
  3  4  1  0  0  0  0
  4  5  4  0  0  0  0
  5  6  4  0  0  0  0
  6  7  1  0  0  0  0
  7  8  4  0  0  0  0
  8  9  4  0  0  0  0
  9 10  4  0  0  0  0
 10 11  4  0  0  0  0
  7 11  4  0  0  0  0
 11 12  2  0  0  0  0
 10 13  1  0  0  0  0
 13 14  1  0  0  0  0
 14 15  1  0  0  0  0
 15 16  1  0  0  0  0
 16 17  1  0  0  0  0
  9 17  1  0  0  0  0
  6 18  4  0  0  0  0
 18 19  1  0  0  0  0
 18 20  4  0  0  0  0
 20 21  4  0  0  0  0
  4 21  4  0  0  0  0
 21 22  1  0  0  0  0
 22 23  2  0  0  0  0
 22 24  1  0  0  0  0
 24 25  1  0  0  0  0
 25 26  4  0  0  0  0
 26 27  1  0  0  0  0
 26 28  4  0  0  0  0
 28 29  4  0  0  0  0
 29 30  4  0  0  0  0
 30 31  4  0  0  0  0
 25 31  4  0  0  0  0
 31 32  1  0  0  0  0
  2 33  1  0  0  0  0
 33 34  1  0  0  0  0
 33 35  1  0  0  0  0
 33 36  1  0  0  0  0
M  END
> <IC50(uM)>
0.0308

> <Outcome>
1.0

> <BindingDB ID>
1020650

> <BindingDB MonomerID>
490579

> <BindingDB Ligand Name>
N-(2,6-difluorophenyl)-5-fluoro-4-(3-oxo-6,7-dihydro-3H,5H-[1,2,4]triazolo[3,4-c][1,4]oxazepin-2(9H)-yl)-2-{[(2S)-1,1,1-trifluoropropan-2-yl]oxy}benzamide::US10968216, Example 247

> <Curation/DataSource>
US Patent

> <Article DOI>
?

> <PMID>
?

> <Patent Number>
US10968216

> <Authors>
Gradl, SN; Nguyen, D; Eis, K; Gunther, J; Stellfeld, T; Janzer, A; Christian, S; Mueller, T; Sheikh, SE; Zhou, HJ; Zhao, C; Sykes, DB; Ferrara, SJ; Liu, K; Herbert, SA; Merz, C; Niehues, M; Nising, CF; Schafer, M; Zimmermann, K; Knablein, J; Thede, K; Faupel, T

> <Link to Ligand in BindingDB>
http://www.bindingdb.org/bind/chemsearch/marvin/MolStructure.jsp?monomerid=490579

> <Link to Ligand-Target Pair in BindingDB>
http://www.bindingdb.org/jsp/dbsearch/PrimarySearch_ki.jsp?energyterm=kJ/mole&tag=r21&monomerid=490579&enzyme=Dihydroorotate+dehydrogenase&column=ki&startPg=0&Increment=50&submit=Search

> <PubChem CID>
134474437

> <PubChem SID>
447117305

$$$$

  Mrv2115 07222212352D          

 30 33  0  0  0  0            999 V2000
   -0.7145   -0.4125    0.0000 O   0  0  0  0  0  0  0  0  0  0  0  0
   -1.4289    0.0000    0.0000 C   0  0  0  0  0  0  0  0  0  0  0  0
   -2.1434   -0.4125    0.0000 O   0  0  0  0  0  0  0  0  0  0  0  0
   -2.1434   -1.2375    0.0000 C   0  0  0  0  0  0  0  0  0  0  0  0
   -1.4289   -1.6500    0.0000 C   0  0  0  0  0  0  0  0  0  0  0  0
   -1.4289   -2.4750    0.0000 C   0  0  0  0  0  0  0  0  0  0  0  0
   -2.1434   -2.8875    0.0000 C   0  0  0  0  0  0  0  0  0  0  0  0
   -2.8579   -2.4750    0.0000 C   0  0  0  0  0  0  0  0  0  0  0  0
   -2.8579   -1.6500    0.0000 C   0  0  0  0  0  0  0  0  0  0  0  0
   -1.4289    0.8250    0.0000 C   0  0  0  0  0  0  0  0  0  0  0  0
   -2.1434    1.2375    0.0000 C   0  0  0  0  0  0  0  0  0  0  0  0
   -2.1434    2.0625    0.0000 C   0  0  0  0  0  0  0  0  0  0  0  0
   -1.4289    2.4750    0.0000 C   0  0  0  0  0  0  0  0  0  0  0  0
   -0.7145    2.0625    0.0000 C   0  0  0  0  0  0  0  0  0  0  0  0
   -0.7145    1.2375    0.0000 C   0  0  0  0  0  0  0  0  0  0  0  0
    0.0000    0.8250    0.0000 C   0  0  0  0  0  0  0  0  0  0  0  0
    0.0000    0.0000    0.0000 N   0  0  0  0  0  0  0  0  0  0  0  0
    0.7145   -0.4125    0.0000 N   0  0  0  0  0  0  0  0  0  0  0  0
    0.7145   -1.2375    0.0000 C   0  0  0  0  0  0  0  0  0  0  0  0
    1.3819   -1.7224    0.0000 N   0  0  0  0  0  0  0  0  0  0  0  0
    1.1270   -2.5070    0.0000 C   0  0  0  0  0  0  0  0  0  0  0  0
    1.6119   -3.1745    0.0000 C   0  0  0  0  0  0  0  0  0  0  0  0
    2.4324   -3.0882    0.0000 C   0  0  0  0  0  0  0  0  0  0  0  0
    2.9173   -3.7557    0.0000 C   0  0  0  0  0  0  0  0  0  0  0  0
    2.5817   -4.5094    0.0000 C   0  0  0  0  0  0  0  0  0  0  0  0
    1.7613   -4.5956    0.0000 C   0  0  0  0  0  0  0  0  0  0  0  0
    1.2763   -3.9282    0.0000 C   0  0  0  0  0  0  0  0  0  0  0  0
    0.4559   -4.0144    0.0000 Cl  0  0  0  0  0  0  0  0  0  0  0  0
    0.3020   -2.5070    0.0000 C   0  0  0  0  0  0  0  0  0  0  0  0
    0.0470   -1.7224    0.0000 S   0  0  0  0  0  0  0  0  0  0  0  0
  1  2  2  0  0  0  0
  2  3  1  0  0  0  0
  3  4  1  0  0  0  0
  4  5  1  0  0  0  0
  5  6  1  0  0  0  0
  6  7  1  0  0  0  0
  7  8  1  0  0  0  0
  8  9  1  0  0  0  0
  4  9  1  0  0  0  0
  2 10  1  0  0  0  0
 10 11  4  0  0  0  0
 11 12  4  0  0  0  0
 12 13  4  0  0  0  0
 13 14  4  0  0  0  0
 14 15  4  0  0  0  0
 10 15  4  0  0  0  0
 15 16  1  0  0  0  0
 16 17  2  0  0  0  0
 17 18  1  0  0  0  0
 18 19  1  0  0  0  0
 19 20  4  0  0  0  0
 20 21  4  0  0  0  0
 21 22  1  0  0  0  0
 22 23  4  0  0  0  0
 23 24  4  0  0  0  0
 24 25  4  0  0  0  0
 25 26  4  0  0  0  0
 26 27  4  0  0  0  0
 22 27  4  0  0  0  0
 27 28  1  0  0  0  0
 21 29  4  0  0  0  0
 29 30  4  0  0  0  0
 19 30  4  0  0  0  0
M  END
> <IC50(uM)>
50.0

> <Outcome>
0.0

> <BindingDB ID>
1001142

> <BindingDB MonomerID>
482828

> <BindingDB Ligand Name>
US10919869, No.  A8

> <Curation/DataSource>
US Patent

> <Article DOI>
?

> <PMID>
?

> <Patent Number>
US10919869

> <Authors>
Li, H; Xu, Y; Wang, R; Zhao, Z; Song, W; Xu, L

> <Link to Ligand in BindingDB>
http://www.bindingdb.org/bind/chemsearch/marvin/MolStructure.jsp?monomerid=482828

> <Link to Ligand-Target Pair in BindingDB>
http://www.bindingdb.org/jsp/dbsearch/PrimarySearch_ki.jsp?energyterm=kJ/mole&tag=r21&monomerid=482828&enzyme=Dihydroorotate+dehydrogenase&column=ki&startPg=0&Increment=50&submit=Search

> <PubChem CID>
132157918

> <PubChem SID>
443551968

$$$$

  Mrv2115 07222212352D          

 35 38  0  0  0  0            999 V2000
   -3.1034    2.1599    0.0000 C   0  0  0  0  0  0  0  0  0  0  0  0
   -2.6909    1.4455    0.0000 C   0  0  0  0  0  0  0  0  0  0  0  0
   -3.1034    0.7310    0.0000 O   0  0  0  0  0  0  0  0  0  0  0  0
   -2.6909    0.0165    0.0000 C   0  0  0  0  0  0  0  0  0  0  0  0
   -1.8659    0.0165    0.0000 C   0  0  0  0  0  0  0  0  0  0  0  0
   -1.4534   -0.6979    0.0000 C   0  0  0  0  0  0  0  0  0  0  0  0
   -0.6284   -0.6979    0.0000 N   0  0  0  0  0  0  0  0  0  0  0  0
   -0.1435   -1.3654    0.0000 N   0  0  0  0  0  0  0  0  0  0  0  0
    0.6411   -1.1104    0.0000 C   0  0  0  0  0  0  0  0  0  0  0  0
    0.6411   -0.2854    0.0000 N   0  0  0  0  0  0  0  0  0  0  0  0
   -0.1435   -0.0305    0.0000 C   0  0  0  0  0  0  0  0  0  0  0  0
   -0.3984    0.7541    0.0000 O   0  0  0  0  0  0  0  0  0  0  0  0
    1.3556    0.1271    0.0000 C   0  0  0  0  0  0  0  0  0  0  0  0
    2.0701   -0.2854    0.0000 C   0  0  0  0  0  0  0  0  0  0  0  0
    2.0701   -1.1104    0.0000 C   0  0  0  0  0  0  0  0  0  0  0  0
    1.3556   -1.5229    0.0000 C   0  0  0  0  0  0  0  0  0  0  0  0
   -1.8659   -1.4124    0.0000 C   0  0  0  0  0  0  0  0  0  0  0  0
   -1.4534   -2.1269    0.0000 F   0  0  0  0  0  0  0  0  0  0  0  0
   -2.6909   -1.4124    0.0000 C   0  0  0  0  0  0  0  0  0  0  0  0
   -3.1034   -0.6979    0.0000 C   0  0  0  0  0  0  0  0  0  0  0  0
   -3.9284   -0.6979    0.0000 C   0  0  0  0  0  0  0  0  0  0  0  0
   -4.3409    0.0165    0.0000 O   0  0  0  0  0  0  0  0  0  0  0  0
   -4.3409   -1.4124    0.0000 N   0  0  0  0  0  0  0  0  0  0  0  0
   -5.1659   -1.4124    0.0000 C   0  0  0  0  0  0  0  0  0  0  0  0
   -5.5784   -2.1269    0.0000 C   0  0  0  0  0  0  0  0  0  0  0  0
   -6.4034   -2.1269    0.0000 C   0  0  0  0  0  0  0  0  0  0  0  0
   -6.8159   -2.8414    0.0000 F   0  0  0  0  0  0  0  0  0  0  0  0
   -6.8159   -1.4124    0.0000 C   0  0  0  0  0  0  0  0  0  0  0  0
   -6.4034   -0.6979    0.0000 C   0  0  0  0  0  0  0  0  0  0  0  0
   -5.5784   -0.6979    0.0000 C   0  0  0  0  0  0  0  0  0  0  0  0
   -5.1659    0.0165    0.0000 Cl  0  0  0  0  0  0  0  0  0  0  0  0
   -1.8659    1.4455    0.0000 C   0  0  0  0  0  0  0  0  0  0  0  0
   -1.8659    0.6205    0.0000 F   0  0  0  0  0  0  0  0  0  0  0  0
   -1.8659    2.2705    0.0000 F   0  0  0  0  0  0  0  0  0  0  0  0
   -1.0409    1.4455    0.0000 F   0  0  0  0  0  0  0  0  0  0  0  0
  1  2  1  0  0  0  0
  2  3  1  0  0  0  0
  3  4  1  0  0  0  0
  4  5  4  0  0  0  0
  5  6  4  0  0  0  0
  6  7  1  0  0  0  0
  7  8  4  0  0  0  0
  8  9  4  0  0  0  0
  9 10  4  0  0  0  0
 10 11  4  0  0  0  0
  7 11  4  0  0  0  0
 11 12  2  0  0  0  0
 10 13  1  0  0  0  0
 13 14  1  0  0  0  0
 14 15  1  0  0  0  0
 15 16  1  0  0  0  0
  9 16  1  0  0  0  0
  6 17  4  0  0  0  0
 17 18  1  0  0  0  0
 17 19  4  0  0  0  0
 19 20  4  0  0  0  0
  4 20  4  0  0  0  0
 20 21  1  0  0  0  0
 21 22  2  0  0  0  0
 21 23  1  0  0  0  0
 23 24  1  0  0  0  0
 24 25  4  0  0  0  0
 25 26  4  0  0  0  0
 26 27  1  0  0  0  0
 26 28  4  0  0  0  0
 28 29  4  0  0  0  0
 29 30  4  0  0  0  0
 24 30  4  0  0  0  0
 30 31  1  0  0  0  0
  2 32  1  0  0  0  0
 32 33  1  0  0  0  0
 32 34  1  0  0  0  0
 32 35  1  0  0  0  0
M  END
> <IC50(uM)>
0.096

> <Outcome>
1.0

> <BindingDB ID>
1020468

> <BindingDB MonomerID>
490416

> <BindingDB Ligand Name>
N-(2-chloro-5-fluorophenyl)-5-fluoro-4-(3-oxo-5,6,7,8-tetrahydro[1,2,4]triazolo[4,3-a]pyridin-2(3H)-yl)-2-{[(2S)-1,1,1-trifluoropropan-2-yl]oxy}benzamide::US10968216, Example 84

> <Curation/DataSource>
US Patent

> <Article DOI>
?

> <PMID>
?

> <Patent Number>
US10968216

> <Authors>
Gradl, SN; Nguyen, D; Eis, K; Gunther, J; Stellfeld, T; Janzer, A; Christian, S; Mueller, T; Sheikh, SE; Zhou, HJ; Zhao, C; Sykes, DB; Ferrara, SJ; Liu, K; Herbert, SA; Merz, C; Niehues, M; Nising, CF; Schafer, M; Zimmermann, K; Knablein, J; Thede, K; Faupel, T

> <Link to Ligand in BindingDB>
http://www.bindingdb.org/bind/chemsearch/marvin/MolStructure.jsp?monomerid=490416

> <Link to Ligand-Target Pair in BindingDB>
http://www.bindingdb.org/jsp/dbsearch/PrimarySearch_ki.jsp?energyterm=kJ/mole&tag=r21&monomerid=490416&enzyme=Dihydroorotate+dehydrogenase&column=ki&startPg=0&Increment=50&submit=Search

> <PubChem CID>
134474333

> <PubChem SID>
447117143

$$$$

  Mrv2115 07222212352D          

 27 29  0  0  0  0            999 V2000
   -2.1434   -0.4125    0.0000 O   0  0  0  0  0  0  0  0  0  0  0  0
   -1.4289    0.0000    0.0000 C   0  0  0  0  0  0  0  0  0  0  0  0
   -0.7145   -0.4125    0.0000 O   0  0  0  0  0  0  0  0  0  0  0  0
   -1.4289    0.8250    0.0000 C   0  0  0  0  0  0  0  0  0  0  0  0
   -2.1434    1.2375    0.0000 C   0  0  0  0  0  0  0  0  0  0  0  0
   -2.1434    2.0625    0.0000 C   0  0  0  0  0  0  0  0  0  0  0  0
   -1.4289    2.4750    0.0000 C   0  0  0  0  0  0  0  0  0  0  0  0
   -0.7145    2.0625    0.0000 C   0  0  0  0  0  0  0  0  0  0  0  0
   -0.7145    1.2375    0.0000 C   0  0  0  0  0  0  0  0  0  0  0  0
    0.0000    0.8250    0.0000 C   0  0  0  0  0  0  0  0  0  0  0  0
    0.0000    0.0000    0.0000 N   0  0  0  0  0  0  0  0  0  0  0  0
    0.7145   -0.4125    0.0000 N   0  0  0  0  0  0  0  0  0  0  0  0
    1.4289   -0.0000    0.0000 C   0  0  0  0  0  0  0  0  0  0  0  0
    1.4289    0.8250    0.0000 C   0  0  0  0  0  0  0  0  0  0  0  0
    2.1434    1.2375    0.0000 O   0  0  0  0  0  0  0  0  0  0  0  0
    0.7145   -1.2375    0.0000 C   0  0  0  0  0  0  0  0  0  0  0  0
    1.3819   -1.7224    0.0000 N   0  0  0  0  0  0  0  0  0  0  0  0
    1.1270   -2.5070    0.0000 C   0  0  0  0  0  0  0  0  0  0  0  0
    1.6119   -3.1745    0.0000 C   0  0  0  0  0  0  0  0  0  0  0  0
    2.4324   -3.0882    0.0000 C   0  0  0  0  0  0  0  0  0  0  0  0
    2.9173   -3.7557    0.0000 C   0  0  0  0  0  0  0  0  0  0  0  0
    2.5817   -4.5094    0.0000 C   0  0  0  0  0  0  0  0  0  0  0  0
    1.7613   -4.5956    0.0000 C   0  0  0  0  0  0  0  0  0  0  0  0
    1.2763   -3.9282    0.0000 C   0  0  0  0  0  0  0  0  0  0  0  0
    0.4559   -4.0144    0.0000 Cl  0  0  0  0  0  0  0  0  0  0  0  0
    0.3020   -2.5070    0.0000 C   0  0  0  0  0  0  0  0  0  0  0  0
    0.0470   -1.7224    0.0000 S   0  0  0  0  0  0  0  0  0  0  0  0
  1  2  2  0  0  0  0
  2  3  1  0  0  0  0
  2  4  1  0  0  0  0
  4  5  4  0  0  0  0
  5  6  4  0  0  0  0
  6  7  4  0  0  0  0
  7  8  4  0  0  0  0
  8  9  4  0  0  0  0
  4  9  4  0  0  0  0
  9 10  1  0  0  0  0
 10 11  2  0  0  0  0
 11 12  1  0  0  0  0
 12 13  1  0  0  0  0
 13 14  1  0  0  0  0
 14 15  1  0  0  0  0
 12 16  1  0  0  0  0
 16 17  4  0  0  0  0
 17 18  4  0  0  0  0
 18 19  1  0  0  0  0
 19 20  4  0  0  0  0
 20 21  4  0  0  0  0
 21 22  4  0  0  0  0
 22 23  4  0  0  0  0
 23 24  4  0  0  0  0
 19 24  4  0  0  0  0
 24 25  1  0  0  0  0
 18 26  4  0  0  0  0
 26 27  4  0  0  0  0
 16 27  4  0  0  0  0
M  END
> <IC50(uM)>
0.425

> <Outcome>
1.0

> <BindingDB ID>
1001116

> <BindingDB MonomerID>
482802

> <BindingDB Ligand Name>
US10919869, No.  7

> <Curation/DataSource>
US Patent

> <Article DOI>
?

> <PMID>
?

> <Patent Number>
US10919869

> <Authors>
Li, H; Xu, Y; Wang, R; Zhao, Z; Song, W; Xu, L

> <Link to Ligand in BindingDB>
http://www.bindingdb.org/bind/chemsearch/marvin/MolStructure.jsp?monomerid=482802

> <Link to Ligand-Target Pair in BindingDB>
http://www.bindingdb.org/jsp/dbsearch/PrimarySearch_ki.jsp?energyterm=kJ/mole&tag=r21&monomerid=482802&enzyme=Dihydroorotate+dehydrogenase&column=ki&startPg=0&Increment=50&submit=Search

> <PubChem CID>
132158011

> <PubChem SID>
443551943

$$$$

  Mrv2115 07222212352D          

 21 23  0  0  0  0            999 V2000
   -0.7145   -1.2375    0.0000 O   0  0  0  0  0  0  0  0  0  0  0  0
    0.0000   -1.6500    0.0000 C   0  0  0  0  0  0  0  0  0  0  0  0
    0.0000   -2.4750    0.0000 N   0  0  0  0  0  0  0  0  0  0  0  0
   -0.7145   -2.8875    0.0000 C   0  0  0  0  0  0  0  0  0  0  0  0
   -0.7145   -3.7125    0.0000 C   0  0  0  0  0  0  0  0  0  0  0  0
   -1.4289   -4.1250    0.0000 C   0  0  0  0  0  0  0  0  0  0  0  0
   -2.1434   -3.7125    0.0000 C   0  0  0  0  0  0  0  0  0  0  0  0
   -2.8579   -4.1250    0.0000 Cl  0  0  0  0  0  0  0  0  0  0  0  0
   -2.1434   -2.8875    0.0000 C   0  0  0  0  0  0  0  0  0  0  0  0
   -1.4289   -2.4750    0.0000 C   0  0  0  0  0  0  0  0  0  0  0  0
   -1.4289   -1.6500    0.0000 Cl  0  0  0  0  0  0  0  0  0  0  0  0
    0.7145   -1.2375    0.0000 C   0  0  0  0  0  0  0  0  0  0  0  0
    0.7145   -0.4125    0.0000 C   0  0  0  0  0  0  0  0  0  0  0  0
    1.4289    0.0000    0.0000 C   0  0  0  0  0  0  0  0  0  0  0  0
    2.1434   -0.4125    0.0000 C   0  0  0  0  0  0  0  0  0  0  0  0
    2.8579    0.0000    0.0000 C   0  0  0  0  0  0  0  0  0  0  0  0
    3.5724   -0.4125    0.0000 C   0  0  0  0  0  0  0  0  0  0  0  0
    3.5724   -1.2375    0.0000 C   0  0  0  0  0  0  0  0  0  0  0  0
    2.8579   -1.6500    0.0000 C   0  0  0  0  0  0  0  0  0  0  0  0
    2.1434   -1.2375    0.0000 C   0  0  0  0  0  0  0  0  0  0  0  0
    1.4289   -1.6500    0.0000 C   0  0  0  0  0  0  0  0  0  0  0  0
  1  2  2  0  0  0  0
  2  3  1  0  0  0  0
  3  4  1  0  0  0  0
  4  5  4  0  0  0  0
  5  6  4  0  0  0  0
  6  7  4  0  0  0  0
  7  8  1  0  0  0  0
  7  9  4  0  0  0  0
  9 10  4  0  0  0  0
  4 10  4  0  0  0  0
 10 11  1  0  0  0  0
  2 12  1  0  0  0  0
 12 13  4  0  0  0  0
 13 14  4  0  0  0  0
 14 15  4  0  0  0  0
 15 16  4  0  0  0  0
 16 17  4  0  0  0  0
 17 18  4  0  0  0  0
 18 19  4  0  0  0  0
 19 20  4  0  0  0  0
 15 20  4  0  0  0  0
 20 21  4  0  0  0  0
 12 21  4  0  0  0  0
M  END
> <IC50(uM)>
50.0

> <Outcome>
0.0

> <BindingDB ID>
28094

> <BindingDB MonomerID>
15345

> <BindingDB Ligand Name>
Asinex compound no. 1::N-(2,4-dichlorophenyl)naphthalene-2-carboxamide

> <Curation/DataSource>
Curated from the literature by BindingDB

> <Article DOI>
10.1074/jbc.M501100200

> <PMID>
15795226

> <Patent Number>
?

> <Authors>
Baldwin, J; Michnoff, CH; Malmquist, NA; White, J; Roth, MG; Rathod, PK; Phillips, MA

> <Link to Ligand in BindingDB>
http://www.bindingdb.org/bind/chemsearch/marvin/MolStructure.jsp?monomerid=15345

> <Link to Ligand-Target Pair in BindingDB>
http://www.bindingdb.org/jsp/dbsearch/PrimarySearch_ki.jsp?energyterm=kJ/mole&tag=r21&monomerid=15345&enzyme=Dihydroorotate+Dehydrogenase+%28DHODH%29&column=ki&startPg=0&Increment=50&submit=Search

> <PubChem CID>
1101328

> <PubChem SID>
46509456

$$$$

  Mrv2115 07222212352D          

 36 39  0  0  0  0            999 V2000
    2.3167   -5.1890    0.0000 C   0  0  0  0  0  0  0  0  0  0  0  0
    1.7036   -5.7410    0.0000 O   0  0  0  0  0  0  0  0  0  0  0  0
    0.9190   -5.4861    0.0000 C   0  0  0  0  0  0  0  0  0  0  0  0
    0.6640   -4.7015    0.0000 N   0  0  0  0  0  0  0  0  0  0  0  0
   -0.1610   -4.7015    0.0000 N   0  0  0  0  0  0  0  0  0  0  0  0
   -0.6459   -4.0340    0.0000 C   0  0  0  0  0  0  0  0  0  0  0  0
   -1.4664   -4.1203    0.0000 C   0  0  0  0  0  0  0  0  0  0  0  0
   -1.9513   -3.4528    0.0000 C   0  0  0  0  0  0  0  0  0  0  0  0
   -2.7718   -3.5391    0.0000 O   0  0  0  0  0  0  0  0  0  0  0  0
   -3.1073   -4.2927    0.0000 C   0  0  0  0  0  0  0  0  0  0  0  0
   -2.6224   -4.9602    0.0000 C   0  0  0  0  0  0  0  0  0  0  0  0
   -3.9278   -4.3790    0.0000 C   0  0  0  0  0  0  0  0  0  0  0  0
   -4.0140   -3.5585    0.0000 F   0  0  0  0  0  0  0  0  0  0  0  0
   -3.8416   -5.1995    0.0000 F   0  0  0  0  0  0  0  0  0  0  0  0
   -4.7483   -4.4652    0.0000 F   0  0  0  0  0  0  0  0  0  0  0  0
   -1.6157   -2.6992    0.0000 C   0  0  0  0  0  0  0  0  0  0  0  0
   -2.1006   -2.0317    0.0000 C   0  0  0  0  0  0  0  0  0  0  0  0
   -1.7651   -1.2780    0.0000 O   0  0  0  0  0  0  0  0  0  0  0  0
   -2.9211   -2.1180    0.0000 N   0  0  0  0  0  0  0  0  0  0  0  0
   -3.4060   -1.4505    0.0000 C   0  0  0  0  0  0  0  0  0  0  0  0
   -4.2265   -1.5367    0.0000 C   0  0  0  0  0  0  0  0  0  0  0  0
   -4.5621   -2.2904    0.0000 F   0  0  0  0  0  0  0  0  0  0  0  0
   -4.7114   -0.8693    0.0000 C   0  0  0  0  0  0  0  0  0  0  0  0
   -4.3759   -0.1156    0.0000 C   0  0  0  0  0  0  0  0  0  0  0  0
   -3.5554   -0.0294    0.0000 C   0  0  0  0  0  0  0  0  0  0  0  0
   -3.0705   -0.6968    0.0000 C   0  0  0  0  0  0  0  0  0  0  0  0
   -2.2500   -0.6106    0.0000 F   0  0  0  0  0  0  0  0  0  0  0  0
   -0.7952   -2.6129    0.0000 C   0  0  0  0  0  0  0  0  0  0  0  0
   -0.3103   -3.2804    0.0000 C   0  0  0  0  0  0  0  0  0  0  0  0
    0.5102   -3.1941    0.0000 F   0  0  0  0  0  0  0  0  0  0  0  0
   -0.4159   -5.4861    0.0000 C   0  0  0  0  0  0  0  0  0  0  0  0
   -1.2005   -5.7410    0.0000 O   0  0  0  0  0  0  0  0  0  0  0  0
    0.2515   -5.9710    0.0000 N   0  0  0  0  0  0  0  0  0  0  0  0
    0.2515   -6.7960    0.0000 C   0  0  0  0  0  0  0  0  0  0  0  0
    0.6640   -7.5105    0.0000 C   0  0  0  0  0  0  0  0  0  0  0  0
   -0.1610   -7.5105    0.0000 C   0  0  0  0  0  0  0  0  0  0  0  0
  1  2  1  0  0  0  0
  2  3  1  0  0  0  0
  3  4  4  0  0  0  0
  4  5  4  0  0  0  0
  5  6  1  0  0  0  0
  6  7  4  0  0  0  0
  7  8  4  0  0  0  0
  8  9  1  0  0  0  0
  9 10  1  0  0  0  0
 10 11  1  0  0  0  0
 10 12  1  0  0  0  0
 12 13  1  0  0  0  0
 12 14  1  0  0  0  0
 12 15  1  0  0  0  0
  8 16  4  0  0  0  0
 16 17  1  0  0  0  0
 17 18  2  0  0  0  0
 17 19  1  0  0  0  0
 19 20  1  0  0  0  0
 20 21  4  0  0  0  0
 21 22  1  0  0  0  0
 21 23  4  0  0  0  0
 23 24  4  0  0  0  0
 24 25  4  0  0  0  0
 25 26  4  0  0  0  0
 20 26  4  0  0  0  0
 26 27  1  0  0  0  0
 16 28  4  0  0  0  0
 28 29  4  0  0  0  0
  6 29  4  0  0  0  0
 29 30  1  0  0  0  0
  5 31  4  0  0  0  0
 31 32  2  0  0  0  0
 31 33  4  0  0  0  0
  3 33  4  0  0  0  0
 33 34  1  0  0  0  0
 34 35  1  0  0  0  0
 35 36  1  0  0  0  0
 34 36  1  0  0  0  0
M  END
> <IC50(uM)>
0.24

> <Outcome>
1.0

> <BindingDB ID>
972568; 1098722

> <BindingDB MonomerID>
470442

> <BindingDB Ligand Name>
4-(4-cyclopropyl-3-methoxy-5-oxo-4,5-dihydro-1H-1,2,4-triazol-1-yl)-N-(2,6-difluorophenyl)-5-fluoro-2-{[(2S)-1,1,1-trifluoropropan-2-yl]oxy}benzamide::US10815215, Example 110; 4-(4-cyclopropyl-3-methoxy-5-oxo-4,5-dihydro-1H-1,2,4-triazol-1-yl)-N-(2,6-difluorophenyl)-5-fluoro-2-{[(2S)-1,1,1-trifluoropropan-2-yl]oxy}benzamide::US10815215, Example 110::US11130745, Example 110

> <Curation/DataSource>
US Patent

> <Article DOI>
?

> <PMID>
?

> <Patent Number>
US10815215; US11130745

> <Authors>
Gradl, SN; Nguyen, D; Eis, K; Gunther, J; Stellfeld, T; Janzer, A; Christian, S; Muller, T; Sheikh, SE; Zhou, HJ; Zhao, C; Sykes, DB; Ferrara, SJ; Liu, K; Krober, M; Merz, C; Niehues, M; Schafer, M; Zimmermann, K; Nising, CF; Gradl, SN; Nguyen, D; Eis, K; Gunther, J; Stellfeld, T; Janzer, A; Christian, S; Muller, T; Sheikh, SE; Sykes, DB; Ferrara, SJ; Krober, M; Merz, C; Niehues, M; Schafer, M; Zimmermann, K; Nising, CF

> <Link to Ligand in BindingDB>
http://www.bindingdb.org/bind/chemsearch/marvin/MolStructure.jsp?monomerid=470442

> <Link to Ligand-Target Pair in BindingDB>
http://www.bindingdb.org/jsp/dbsearch/PrimarySearch_ki.jsp?energyterm=kJ/mole&tag=r21&monomerid=470442&enzyme=Dihydroorotate+dehydrogenase&column=ki&startPg=0&Increment=50&submit=Search

> <PubChem CID>
134470399

> <PubChem SID>
441609619

$$$$

  Mrv2115 07222212352D          

 32 36  0  0  0  0            999 V2000
    3.9934    2.4750    0.0000 N   0  0  0  0  0  0  0  0  0  0  0  0
    3.2789    2.0625    0.0000 C   0  0  0  0  0  0  0  0  0  0  0  0
    2.5645    2.4750    0.0000 O   0  0  0  0  0  0  0  0  0  0  0  0
    3.2789    1.2375    0.0000 C   0  0  0  0  0  0  0  0  0  0  0  0
    3.9934    0.8250    0.0000 C   0  0  0  0  0  0  0  0  0  0  0  0
    3.9934    0.0000    0.0000 C   0  0  0  0  0  0  0  0  0  0  0  0
    4.7079   -0.4125    0.0000 F   0  0  0  0  0  0  0  0  0  0  0  0
    3.2789   -0.4125    0.0000 C   0  0  0  0  0  0  0  0  0  0  0  0
    2.5645    0.0000    0.0000 C   0  0  0  0  0  0  0  0  0  0  0  0
    1.7798   -0.2549    0.0000 N   0  0  0  0  0  0  0  0  0  0  0  0
    1.2949    0.4125    0.0000 C   0  0  0  0  0  0  0  0  0  0  0  0
    0.4699    0.4125    0.0000 C   0  0  0  0  0  0  0  0  0  0  0  0
    0.0574   -0.3020    0.0000 C   0  0  0  0  0  0  0  0  0  0  0  0
   -0.7676   -0.3020    0.0000 C   0  0  0  0  0  0  0  0  0  0  0  0
   -1.1801    0.4125    0.0000 C   0  0  0  0  0  0  0  0  0  0  0  0
   -2.0051    0.4125    0.0000 C   0  0  0  0  0  0  0  0  0  0  0  0
   -2.4176   -0.3020    0.0000 C   0  0  0  0  0  0  0  0  0  0  0  0
   -3.2426   -0.3020    0.0000 C   0  0  0  0  0  0  0  0  0  0  0  0
   -3.6551    0.4125    0.0000 C   0  0  0  0  0  0  0  0  0  0  0  0
   -3.2426    1.1270    0.0000 C   0  0  0  0  0  0  0  0  0  0  0  0
   -3.6551    1.8414    0.0000 N   0  0  0  0  0  0  0  0  0  0  0  0
   -4.4801    1.8414    0.0000 C   0  0  0  0  0  0  0  0  0  0  0  0
   -4.8926    1.1270    0.0000 O   0  0  0  0  0  0  0  0  0  0  0  0
   -4.8926    2.5559    0.0000 C   0  0  0  0  0  0  0  0  0  0  0  0
   -5.6071    2.9684    0.0000 C   0  0  0  0  0  0  0  0  0  0  0  0
   -4.8926    3.3809    0.0000 C   0  0  0  0  0  0  0  0  0  0  0  0
   -2.4176    1.1270    0.0000 C   0  0  0  0  0  0  0  0  0  0  0  0
   -0.7676    1.1270    0.0000 C   0  0  0  0  0  0  0  0  0  0  0  0
    0.0574    1.1270    0.0000 C   0  0  0  0  0  0  0  0  0  0  0  0
    0.4699    1.8414    0.0000 F   0  0  0  0  0  0  0  0  0  0  0  0
    1.7798    1.0799    0.0000 N   0  0  0  0  0  0  0  0  0  0  0  0
    2.5645    0.8250    0.0000 C   0  0  0  0  0  0  0  0  0  0  0  0
  1  2  1  0  0  0  0
  2  3  2  0  0  0  0
  2  4  1  0  0  0  0
  4  5  4  0  0  0  0
  5  6  4  0  0  0  0
  6  7  1  0  0  0  0
  6  8  4  0  0  0  0
  8  9  4  0  0  0  0
  9 10  4  0  0  0  0
 10 11  4  0  0  0  0
 11 12  1  0  0  0  0
 12 13  4  0  0  0  0
 13 14  4  0  0  0  0
 14 15  4  0  0  0  0
 15 16  1  0  0  0  0
 16 17  4  0  0  0  0
 17 18  4  0  0  0  0
 18 19  4  0  0  0  0
 19 20  4  0  0  0  0
 20 21  1  0  0  0  0
 21 22  1  0  0  0  0
 22 23  2  0  0  0  0
 22 24  1  0  0  0  0
 24 25  1  0  0  0  0
 25 26  1  0  0  0  0
 24 26  1  0  0  0  0
 20 27  4  0  0  0  0
 16 27  4  0  0  0  0
 15 28  4  0  0  0  0
 28 29  4  0  0  0  0
 12 29  4  0  0  0  0
 29 30  1  0  0  0  0
 11 31  4  0  0  0  0
 31 32  4  0  0  0  0
  4 32  4  0  0  0  0
  9 32  4  0  0  0  0
M  STY  1   1 DAT
M  SAL   1  1  10
M  SDT   1 MRV_IMPLICIT_H                                        
M  SDD   1     0.5304   -0.4125    DR    ALL  0       0  
M  SED   1 IMPL_H1
M  END
> <IC50(uM)>
38.0

> <Outcome>
0.0

> <BindingDB ID>
50358226

> <BindingDB MonomerID>
50096151

> <BindingDB Ligand Name>
CHEMBL3593995

> <Curation/DataSource>
ChEMBL

> <Article DOI>
10.1016/j.bmc.2015.05.051

> <PMID>
26088338

> <Patent Number>
?

> <Authors>
Abdullah, I; Chee, CF; Lee, YK; Thunuguntla, SS; Satish Reddy, K; Nellore, K; Antony, T; Verma, J; Mun, KW; Othman, S; Subramanya, H; Rahman, NA

> <Link to Ligand in BindingDB>
http://www.bindingdb.org/bind/chemsearch/marvin/MolStructure.jsp?monomerid=50096151

> <Link to Ligand-Target Pair in BindingDB>
http://www.bindingdb.org/jsp/dbsearch/PrimarySearch_ki.jsp?energyterm=kJ/mole&tag=r21&monomerid=50096151&enzyme=Dihydroorotate+dehydrogenase&column=ki&startPg=0&Increment=50&submit=Search

> <PubChem CID>
122182323

> <PubChem SID>
318473804

$$$$

  Mrv2115 07222212352D          

 20 22  0  0  0  0            999 V2000
    2.1434   -2.8875    0.0000 O   0  0  0  0  0  0  0  0  0  0  0  0
    1.4289   -2.4750    0.0000 C   0  0  0  0  0  0  0  0  0  0  0  0
    0.7145   -2.8875    0.0000 O   0  0  0  0  0  0  0  0  0  0  0  0
    1.4289   -1.6500    0.0000 C   0  0  0  0  0  0  0  0  0  0  0  0
    0.7145   -1.2375    0.0000 C   0  0  0  0  0  0  0  0  0  0  0  0
    0.0000   -1.6500    0.0000 O   0  0  0  0  0  0  0  0  0  0  0  0
    0.7145   -0.4125    0.0000 C   0  0  0  0  0  0  0  0  0  0  0  0
    0.0000    0.0000    0.0000 C   0  0  0  0  0  0  0  0  0  0  0  0
   -0.7145   -0.4125    0.0000 C   0  0  0  0  0  0  0  0  0  0  0  0
   -1.4289    0.0000    0.0000 C   0  0  0  0  0  0  0  0  0  0  0  0
   -1.4289    0.8250    0.0000 C   0  0  0  0  0  0  0  0  0  0  0  0
   -0.7145    1.2375    0.0000 C   0  0  0  0  0  0  0  0  0  0  0  0
    0.0000    0.8250    0.0000 C   0  0  0  0  0  0  0  0  0  0  0  0
    1.4289    0.0000    0.0000 N   0  0  0  0  0  0  0  0  0  0  0  0
    2.1434   -0.4125    0.0000 C   0  0  0  0  0  0  0  0  0  0  0  0
    2.8579    0.0000    0.0000 C   0  0  0  0  0  0  0  0  0  0  0  0
    3.5724   -0.4125    0.0000 C   0  0  0  0  0  0  0  0  0  0  0  0
    3.5724   -1.2375    0.0000 C   0  0  0  0  0  0  0  0  0  0  0  0
    2.8579   -1.6500    0.0000 C   0  0  0  0  0  0  0  0  0  0  0  0
    2.1434   -1.2375    0.0000 C   0  0  0  0  0  0  0  0  0  0  0  0
  1  2  2  0  0  0  0
  2  3  1  0  0  0  0
  2  4  1  0  0  0  0
  4  5  4  0  0  0  0
  5  6  1  0  0  0  0
  5  7  4  0  0  0  0
  7  8  1  0  0  0  0
  8  9  4  0  0  0  0
  9 10  4  0  0  0  0
 10 11  4  0  0  0  0
 11 12  4  0  0  0  0
 12 13  4  0  0  0  0
  8 13  4  0  0  0  0
  7 14  4  0  0  0  0
 14 15  4  0  0  0  0
 15 16  4  0  0  0  0
 16 17  4  0  0  0  0
 17 18  4  0  0  0  0
 18 19  4  0  0  0  0
 19 20  4  0  0  0  0
  4 20  4  0  0  0  0
 15 20  4  0  0  0  0
M  END
> <IC50(uM)>
12.0

> <Outcome>
0.0

> <BindingDB ID>
50841902

> <BindingDB MonomerID>
50201927

> <BindingDB Ligand Name>
3-hydroxy-2-phenylquinoline-4-carboxylic acid::CHEMBL219376

> <Curation/DataSource>
ChEMBL

> <Article DOI>
10.1021/jm0602256

> <PMID>
17201408

> <Patent Number>
?

> <Authors>
Kaila, N; Janz, K; DeBernardo, S; Bedard, PW; Camphausen, RT; Tam, S; Tsao, DH; Keith, JC; Nickerson-Nutter, C; Shilling, A; Young-Sciame, R; Wang, Q

> <Link to Ligand in BindingDB>
http://www.bindingdb.org/bind/chemsearch/marvin/MolStructure.jsp?monomerid=50201927

> <Link to Ligand-Target Pair in BindingDB>
http://www.bindingdb.org/jsp/dbsearch/PrimarySearch_ki.jsp?energyterm=kJ/mole&tag=r21&monomerid=50201927&enzyme=Dihydroorotate+dehydrogenase&column=ki&startPg=0&Increment=50&submit=Search

> <PubChem CID>
10239

> <PubChem SID>
104081578

$$$$

  Mrv2115 07222212352D          

 24 26  0  0  0  0            999 V2000
    6.8990   -1.5307    0.0000 C   0  0  0  0  0  0  0  0  0  0  0  0
    6.0785   -1.4445    0.0000 C   0  0  0  0  0  0  0  0  0  0  0  0
    5.5265   -2.0576    0.0000 N   0  0  0  0  0  0  0  0  0  0  0  0
    4.7728   -1.7220    0.0000 C   0  0  0  0  0  0  0  0  0  0  0  0
    4.0584   -2.1345    0.0000 C   0  0  0  0  0  0  0  0  0  0  0  0
    3.3439   -1.7220    0.0000 O   0  0  0  0  0  0  0  0  0  0  0  0
    4.0584   -2.9595    0.0000 N   0  0  0  0  0  0  0  0  0  0  0  0
    4.6417   -3.5429    0.0000 C   0  0  0  0  0  0  0  0  0  0  0  0
    4.0584   -4.1263    0.0000 C   0  0  0  0  0  0  0  0  0  0  0  0
    3.4750   -3.5429    0.0000 C   0  0  0  0  0  0  0  0  0  0  0  0
    4.8591   -0.9016    0.0000 C   0  0  0  0  0  0  0  0  0  0  0  0
    4.2460   -0.3495    0.0000 C   0  0  0  0  0  0  0  0  0  0  0  0
    5.6660   -0.7300    0.0000 C   0  0  0  0  0  0  0  0  0  0  0  0
    6.0016    0.0236    0.0000 C   0  0  0  0  0  0  0  0  0  0  0  0
    6.8221    0.1099    0.0000 C   0  0  0  0  0  0  0  0  0  0  0  0
    7.1576    0.8636    0.0000 C   0  0  0  0  0  0  0  0  0  0  0  0
    7.9781    0.9498    0.0000 C   0  0  0  0  0  0  0  0  0  0  0  0
    8.4630    0.2824    0.0000 C   0  0  0  0  0  0  0  0  0  0  0  0
    9.2835    0.3686    0.0000 C   0  0  0  0  0  0  0  0  0  0  0  0
   10.1040    0.4548    0.0000 F   0  0  0  0  0  0  0  0  0  0  0  0
    9.3698   -0.4519    0.0000 F   0  0  0  0  0  0  0  0  0  0  0  0
    9.1973    1.1891    0.0000 F   0  0  0  0  0  0  0  0  0  0  0  0
    8.1275   -0.4713    0.0000 C   0  0  0  0  0  0  0  0  0  0  0  0
    7.3070   -0.5576    0.0000 N   0  0  0  0  0  0  0  0  0  0  0  0
  1  2  1  0  0  0  0
  2  3  4  0  0  0  0
  3  4  4  0  0  0  0
  4  5  1  0  0  0  0
  5  6  2  0  0  0  0
  5  7  1  0  0  0  0
  7  8  1  0  0  0  0
  8  9  1  0  0  0  0
  9 10  1  0  0  0  0
  7 10  1  0  0  0  0
  4 11  4  0  0  0  0
 11 12  1  0  0  0  0
 11 13  4  0  0  0  0
  2 13  4  0  0  0  0
 13 14  1  0  0  0  0
 14 15  1  0  0  0  0
 15 16  4  0  0  0  0
 16 17  4  0  0  0  0
 17 18  4  0  0  0  0
 18 19  1  0  0  0  0
 19 20  1  0  0  0  0
 19 21  1  0  0  0  0
 19 22  1  0  0  0  0
 18 23  4  0  0  0  0
 23 24  4  0  0  0  0
 15 24  4  0  0  0  0
M  STY  1   1 DAT
M  SAL   1  1   3
M  SDT   1 MRV_IMPLICIT_H                                        
M  SDD   1     0.5304   -0.4125    DR    ALL  0       0  
M  SED   1 IMPL_H1
M  END
> <IC50(uM)>
100.0

> <Outcome>
0.0

> <BindingDB ID>
51330092

> <BindingDB MonomerID>
50538340

> <BindingDB Ligand Name>
CHEMBL4634278

> <Curation/DataSource>
ChEMBL

> <Article DOI>
10.1021/acs.jmedchem.0c00311

> <PMID>
32248693

> <Patent Number>
?

> <Authors>
Kokkonda, S; Deng, X; White, KL; El Mazouni, F; White, J; Shackleford, DM; Katneni, K; Chiu, FCK; Barker, H; McLaren, J; Crighton, E; Chen, G; Angulo-Barturen, I; Jimenez-Diaz, MB; Ferrer, S; Huertas-Valentin, L; Martinez-Martinez, MS; Lafuente-Monasterio, MJ; Chittimalla, R; Shahi, SP; Wittlin, S; Waterson, D; Burrows, JN; Matthews, D; Tomchick, D; Rathod, PK; Palmer, MJ; Charman, SA; Phillips, MA

> <Link to Ligand in BindingDB>
http://www.bindingdb.org/bind/chemsearch/marvin/MolStructure.jsp?monomerid=50538340

> <Link to Ligand-Target Pair in BindingDB>
http://www.bindingdb.org/jsp/dbsearch/PrimarySearch_ki.jsp?energyterm=kJ/mole&tag=r21&monomerid=50538340&enzyme=Dihydroorotate+dehydrogenase&column=ki&startPg=0&Increment=50&submit=Search

> <PubChem CID>
156009575

> <PubChem SID>
442139903

$$$$

  Mrv2115 07222212352D          

 21 22  0  0  0  0            999 V2000
    0.7145   -1.2375    0.0000 C   0  0  0  0  0  0  0  0  0  0  0  0
    1.4289   -1.6500    0.0000 O   0  0  0  0  0  0  0  0  0  0  0  0
    1.4289   -2.4750    0.0000 C   0  0  0  0  0  0  0  0  0  0  0  0
    2.1434   -2.8875    0.0000 C   0  0  0  0  0  0  0  0  0  0  0  0
    2.1434   -3.7125    0.0000 C   0  0  0  0  0  0  0  0  0  0  0  0
    1.4289   -4.1250    0.0000 C   0  0  0  0  0  0  0  0  0  0  0  0
    1.4289   -4.9500    0.0000 C   0  0  0  0  0  0  0  0  0  0  0  0
    2.1434   -5.3625    0.0000 C   0  0  0  0  0  0  0  0  0  0  0  0
    2.1434   -6.1875    0.0000 C   0  0  0  0  0  0  0  0  0  0  0  0
    2.8579   -6.6000    0.0000 C   0  0  0  0  0  0  0  0  0  0  0  0
    3.5724   -6.1875    0.0000 C   0  0  0  0  0  0  0  0  0  0  0  0
    4.2868   -6.6000    0.0000 O   0  0  0  0  0  0  0  0  0  0  0  0
    3.5724   -5.3625    0.0000 O   0  0  0  0  0  0  0  0  0  0  0  0
    2.8579   -7.4250    0.0000 N   0  0  0  0  0  0  0  0  0  0  0  0
    2.1434   -7.8375    0.0000 C   0  0  0  0  0  0  0  0  0  0  0  0
    2.1434   -8.6625    0.0000 O   0  0  0  0  0  0  0  0  0  0  0  0
    1.4289   -7.4250    0.0000 N   0  0  0  0  0  0  0  0  0  0  0  0
    1.4289   -6.6000    0.0000 C   0  0  0  0  0  0  0  0  0  0  0  0
    0.7145   -6.1875    0.0000 O   0  0  0  0  0  0  0  0  0  0  0  0
    0.7145   -3.7125    0.0000 C   0  0  0  0  0  0  0  0  0  0  0  0
    0.7145   -2.8875    0.0000 C   0  0  0  0  0  0  0  0  0  0  0  0
  1  2  1  0  0  0  0
  2  3  1  0  0  0  0
  3  4  4  0  0  0  0
  4  5  4  0  0  0  0
  5  6  4  0  0  0  0
  6  7  1  0  0  0  0
  7  8  1  0  0  0  0
  8  9  1  0  0  0  0
  9 10  4  0  0  0  0
 10 11  1  0  0  0  0
 11 12  2  0  0  0  0
 11 13  1  0  0  0  0
 10 14  4  0  0  0  0
 14 15  4  0  0  0  0
 15 16  2  0  0  0  0
 15 17  4  0  0  0  0
 17 18  4  0  0  0  0
  9 18  4  0  0  0  0
 18 19  2  0  0  0  0
  6 20  4  0  0  0  0
 20 21  4  0  0  0  0
  3 21  4  0  0  0  0
M  STY  2   1 DAT   2 DAT
M  SAL   1  1  14
M  SDT   1 MRV_IMPLICIT_H                                        
M  SDD   1     0.5304   -0.4125    DR    ALL  0       0  
M  SED   1 IMPL_H1
M  SAL   2  1  17
M  SDT   2 MRV_IMPLICIT_H                                        
M  SDD   2     0.5304   -0.4125    DR    ALL  0       0  
M  SED   2 IMPL_H1
M  END
> <IC50(uM)>
2.51

> <Outcome>
0.0

> <BindingDB ID>
50555337

> <BindingDB MonomerID>
50211793

> <BindingDB Ligand Name>
CHEMBL3917513

> <Curation/DataSource>
ChEMBL

> <Article DOI>
10.1016/j.bmc.2017.01.009

> <PMID>
28118956

> <Patent Number>
?

> <Authors>
Inaoka, DK; Iida, M; Hashimoto, S; Tabuchi, T; Kuranaga, T; Balogun, EO; Honma, T; Tanaka, A; Harada, S; Nara, T; Kita, K; Inoue, M

> <Link to Ligand in BindingDB>
http://www.bindingdb.org/bind/chemsearch/marvin/MolStructure.jsp?monomerid=50211793

> <Link to Ligand-Target Pair in BindingDB>
http://www.bindingdb.org/jsp/dbsearch/PrimarySearch_ki.jsp?energyterm=kJ/mole&tag=r21&monomerid=50211793&enzyme=Dihydroorotate+dehydrogenase&column=ki&startPg=0&Increment=50&submit=Search

> <PubChem CID>
134143381

> <PubChem SID>
104087871

$$$$

  Mrv2115 07222212352D          

 20 21  0  0  0  0            999 V2000
    2.0367   -0.4741    0.0000 C   0  0  0  0  0  0  0  0  0  0  0  0
    2.0367   -1.2991    0.0000 C   0  0  0  0  0  0  0  0  0  0  0  0
    2.7041   -1.7840    0.0000 N   0  0  0  0  0  0  0  0  0  0  0  0
    2.4492   -2.5687    0.0000 N   0  0  0  0  0  0  0  0  0  0  0  0
    1.6242   -2.5687    0.0000 C   0  0  0  0  0  0  0  0  0  0  0  0
    1.1393   -3.2361    0.0000 N   0  0  0  0  0  0  0  0  0  0  0  0
    1.4748   -3.9898    0.0000 C   0  0  0  0  0  0  0  0  0  0  0  0
    0.3188   -3.1499    0.0000 C   0  0  0  0  0  0  0  0  0  0  0  0
   -0.1661   -3.8173    0.0000 C   0  0  0  0  0  0  0  0  0  0  0  0
   -0.9866   -3.7311    0.0000 C   0  0  0  0  0  0  0  0  0  0  0  0
   -1.3222   -2.9774    0.0000 C   0  0  0  0  0  0  0  0  0  0  0  0
   -2.1426   -2.8911    0.0000 C   0  0  0  0  0  0  0  0  0  0  0  0
   -2.9631   -2.8049    0.0000 F   0  0  0  0  0  0  0  0  0  0  0  0
   -2.0564   -2.0707    0.0000 F   0  0  0  0  0  0  0  0  0  0  0  0
   -2.2289   -3.7116    0.0000 F   0  0  0  0  0  0  0  0  0  0  0  0
   -0.8372   -2.3099    0.0000 C   0  0  0  0  0  0  0  0  0  0  0  0
   -0.0168   -2.3962    0.0000 C   0  0  0  0  0  0  0  0  0  0  0  0
    1.3693   -1.7840    0.0000 C   0  0  0  0  0  0  0  0  0  0  0  0
    0.5846   -1.5291    0.0000 C   0  0  0  0  0  0  0  0  0  0  0  0
   -0.2000   -1.2742    0.0000 N   0  0  0  0  0  0  0  0  0  0  0  0
  1  2  1  0  0  0  0
  2  3  4  0  0  0  0
  3  4  4  0  0  0  0
  4  5  4  0  0  0  0
  5  6  1  0  0  0  0
  6  7  1  0  0  0  0
  6  8  1  0  0  0  0
  8  9  4  0  0  0  0
  9 10  4  0  0  0  0
 10 11  4  0  0  0  0
 11 12  1  0  0  0  0
 12 13  1  0  0  0  0
 12 14  1  0  0  0  0
 12 15  1  0  0  0  0
 11 16  4  0  0  0  0
 16 17  4  0  0  0  0
  8 17  4  0  0  0  0
  5 18  4  0  0  0  0
  2 18  4  0  0  0  0
 18 19  1  0  0  0  0
 19 20  3  0  0  0  0
M  STY  1   1 DAT
M  SAL   1  1   4
M  SDT   1 MRV_IMPLICIT_H                                        
M  SDD   1     0.5304   -0.4125    DR    ALL  0       0  
M  SED   1 IMPL_H1
M  END
> <IC50(uM)>
50.0

> <Outcome>
0.0

> <BindingDB ID>
50786783

> <BindingDB MonomerID>
50066579

> <BindingDB Ligand Name>
5-Methyl-3-[methyl-(4-trifluoromethyl-phenyl)-amino]-1H-pyrazole-4-carbonitrile::CHEMBL119780

> <Curation/DataSource>
ChEMBL

> <Article DOI>
10.1021/jm981028c

> <PMID>
9719606

> <Patent Number>
?

> <Authors>
Papageorgiou, C; Albert, R; Floersheim, P; Lemaire, M; Bitch, F; Weber, HP; Andersen, E; Hungerford, V; Schreier, MH

> <Link to Ligand in BindingDB>
http://www.bindingdb.org/bind/chemsearch/marvin/MolStructure.jsp?monomerid=50066579

> <Link to Ligand-Target Pair in BindingDB>
http://www.bindingdb.org/jsp/dbsearch/PrimarySearch_ki.jsp?energyterm=kJ/mole&tag=r21&monomerid=50066579&enzyme=Dihydroorotate+dehydrogenase&column=ki&startPg=0&Increment=50&submit=Search

> <PubChem CID>
10516844

> <PubChem SID>
103961199

$$$$

  Mrv2115 07222212352D          

 32 35  0  0  0  0            999 V2000
    4.9620   -2.8867    0.0000 C   0  0  0  0  0  0  0  0  0  0  0  0
    4.9620   -2.0617    0.0000 C   0  0  0  0  0  0  0  0  0  0  0  0
    4.2475   -1.6492    0.0000 C   0  0  0  0  0  0  0  0  0  0  0  0
    3.5330   -2.0617    0.0000 C   0  0  0  0  0  0  0  0  0  0  0  0
    2.8186   -1.6492    0.0000 C   0  0  0  0  0  0  0  0  0  0  0  0
    2.8186   -0.8242    0.0000 C   0  0  0  0  0  0  0  0  0  0  0  0
    2.1041   -0.4117    0.0000 C   0  0  0  0  0  0  0  0  0  0  0  0
    1.3896   -0.8242    0.0000 C   0  0  0  0  0  0  0  0  0  0  0  0
    0.6751   -0.4117    0.0000 C   0  0  0  0  0  0  0  0  0  0  0  0
    0.6751    0.4133    0.0000 C   0  0  0  0  0  0  0  0  0  0  0  0
    1.3896    0.8258    0.0000 C   0  0  0  0  0  0  0  0  0  0  0  0
    2.1041    0.4133    0.0000 C   0  0  0  0  0  0  0  0  0  0  0  0
    3.5330   -0.4117    0.0000 C   0  0  0  0  0  0  0  0  0  0  0  0
    4.2475   -0.8242    0.0000 C   0  0  0  0  0  0  0  0  0  0  0  0
    5.6764   -1.6492    0.0000 N   0  0  0  0  0  0  0  0  0  0  0  0
    5.6764   -0.8242    0.0000 C   0  0  0  0  0  0  0  0  0  0  0  0
    6.3909   -2.0617    0.0000 C   0  0  0  0  0  0  0  0  0  0  0  0
    6.3909   -2.8867    0.0000 O   0  0  0  0  0  0  0  0  0  0  0  0
    7.1054   -1.6492    0.0000 C   0  0  0  0  0  0  0  0  0  0  0  0
    7.8198   -2.0617    0.0000 S   0  0  0  0  0  0  0  0  0  0  0  0
    8.5343   -1.6492    0.0000 C   0  0  0  0  0  0  0  0  0  0  0  0
    8.6206   -0.8287    0.0000 N   0  0  0  0  0  0  0  0  0  0  0  0
    9.4275   -0.6572    0.0000 N   0  0  0  0  0  0  0  0  0  0  0  0
    9.8400   -1.3716    0.0000 N   0  0  0  0  0  0  0  0  0  0  0  0
    9.2880   -1.9847    0.0000 N   0  0  0  0  0  0  0  0  0  0  0  0
    9.4595   -2.7917    0.0000 C   0  0  0  0  0  0  0  0  0  0  0  0
   10.2441   -3.0466    0.0000 C   0  0  0  0  0  0  0  0  0  0  0  0
   10.4157   -3.8536    0.0000 C   0  0  0  0  0  0  0  0  0  0  0  0
    9.8026   -4.4056    0.0000 C   0  0  0  0  0  0  0  0  0  0  0  0
    9.9741   -5.2126    0.0000 O   0  0  0  0  0  0  0  0  0  0  0  0
    9.0180   -4.1507    0.0000 C   0  0  0  0  0  0  0  0  0  0  0  0
    8.8464   -3.3437    0.0000 C   0  0  0  0  0  0  0  0  0  0  0  0
  1  2  1  0  0  0  0
  2  3  1  0  0  0  0
  3  4  4  0  0  0  0
  4  5  4  0  0  0  0
  5  6  4  0  0  0  0
  6  7  1  0  0  0  0
  7  8  4  0  0  0  0
  8  9  4  0  0  0  0
  9 10  4  0  0  0  0
 10 11  4  0  0  0  0
 11 12  4  0  0  0  0
  7 12  4  0  0  0  0
  6 13  4  0  0  0  0
 13 14  4  0  0  0  0
  3 14  4  0  0  0  0
  2 15  1  0  0  0  0
 15 16  1  0  0  0  0
 15 17  1  0  0  0  0
 17 18  2  0  0  0  0
 17 19  1  0  0  0  0
 19 20  1  0  0  0  0
 20 21  1  0  0  0  0
 21 22  4  0  0  0  0
 22 23  4  0  0  0  0
 23 24  4  0  0  0  0
 24 25  4  0  0  0  0
 21 25  4  0  0  0  0
 25 26  1  0  0  0  0
 26 27  4  0  0  0  0
 27 28  4  0  0  0  0
 28 29  4  0  0  0  0
 29 30  1  0  0  0  0
 29 31  4  0  0  0  0
 31 32  4  0  0  0  0
 26 32  4  0  0  0  0
M  END
> <IC50(uM)>
41.0

> <Outcome>
0.0

> <BindingDB ID>
51292543

> <BindingDB MonomerID>
50526853

> <BindingDB Ligand Name>
CHEMBL4520115

> <Curation/DataSource>
ChEMBL

> <Article DOI>
10.1016/j.ejmech.2019.111681

> <PMID>
31557612

> <Patent Number>
?

> <Authors>
Boschi, D; Pippione, AC; Sainas, S; Lolli, ML

> <Link to Ligand in BindingDB>
http://www.bindingdb.org/bind/chemsearch/marvin/MolStructure.jsp?monomerid=50526853

> <Link to Ligand-Target Pair in BindingDB>
http://www.bindingdb.org/jsp/dbsearch/PrimarySearch_ki.jsp?energyterm=kJ/mole&tag=r21&monomerid=50526853&enzyme=Dihydroorotate+dehydrogenase&column=ki&startPg=0&Increment=50&submit=Search

> <PubChem CID>
155542108

> <PubChem SID>
440735435

$$$$

  Mrv2115 07222212352D          

 37 41  0  0  0  0            999 V2000
    0.7145   -5.3625    0.0000 C   0  0  0  0  0  0  0  0  0  0  0  0
   -0.0000   -4.9500    0.0000 C   0  0  0  0  0  0  0  0  0  0  0  0
   -0.0000   -4.1250    0.0000 O   0  0  0  0  0  0  0  0  0  0  0  0
   -0.7145   -3.7125    0.0000 C   0  0  0  0  0  0  0  0  0  0  0  0
   -1.4289   -4.1250    0.0000 C   0  0  0  0  0  0  0  0  0  0  0  0
   -2.1434   -3.7125    0.0000 C   0  0  0  0  0  0  0  0  0  0  0  0
   -2.8579   -4.1250    0.0000 N   0  0  0  0  0  0  0  0  0  0  0  0
   -3.6116   -3.7894    0.0000 N   0  0  0  0  0  0  0  0  0  0  0  0
   -4.1636   -4.4025    0.0000 C   0  0  0  0  0  0  0  0  0  0  0  0
   -3.7511   -5.1170    0.0000 N   0  0  0  0  0  0  0  0  0  0  0  0
   -2.9441   -4.9455    0.0000 C   0  0  0  0  0  0  0  0  0  0  0  0
   -2.3310   -5.4975    0.0000 O   0  0  0  0  0  0  0  0  0  0  0  0
   -4.1636   -5.8315    0.0000 C   0  0  0  0  0  0  0  0  0  0  0  0
   -4.9886   -5.8315    0.0000 C   0  0  0  0  0  0  0  0  0  0  0  0
   -5.4011   -5.1170    0.0000 C   0  0  0  0  0  0  0  0  0  0  0  0
   -4.9886   -4.4025    0.0000 C   0  0  0  0  0  0  0  0  0  0  0  0
   -2.1434   -2.8875    0.0000 C   0  0  0  0  0  0  0  0  0  0  0  0
   -2.8579   -2.4750    0.0000 F   0  0  0  0  0  0  0  0  0  0  0  0
   -1.4289   -2.4750    0.0000 C   0  0  0  0  0  0  0  0  0  0  0  0
   -0.7145   -2.8875    0.0000 C   0  0  0  0  0  0  0  0  0  0  0  0
    0.0000   -2.4750    0.0000 C   0  0  0  0  0  0  0  0  0  0  0  0
    0.7145   -2.8875    0.0000 O   0  0  0  0  0  0  0  0  0  0  0  0
    0.0000   -1.6500    0.0000 N   0  0  0  0  0  0  0  0  0  0  0  0
    0.7145   -1.2375    0.0000 C   0  0  0  0  0  0  0  0  0  0  0  0
    0.7145   -0.4125    0.0000 C   0  0  0  0  0  0  0  0  0  0  0  0
    1.4289    0.0000    0.0000 C   0  0  0  0  0  0  0  0  0  0  0  0
    2.1434   -0.4125    0.0000 C   0  0  0  0  0  0  0  0  0  0  0  0
    2.8579    0.0000    0.0000 C   0  0  0  0  0  0  0  0  0  0  0  0
    3.5724   -0.4125    0.0000 C   0  0  0  0  0  0  0  0  0  0  0  0
    3.5724   -1.2375    0.0000 C   0  0  0  0  0  0  0  0  0  0  0  0
    2.8579   -1.6500    0.0000 N   0  0  0  0  0  0  0  0  0  0  0  0
    2.1434   -1.2375    0.0000 C   0  0  0  0  0  0  0  0  0  0  0  0
    1.4289   -1.6500    0.0000 C   0  0  0  0  0  0  0  0  0  0  0  0
   -0.7145   -5.3625    0.0000 C   0  0  0  0  0  0  0  0  0  0  0  0
   -1.1270   -4.6480    0.0000 F   0  0  0  0  0  0  0  0  0  0  0  0
   -0.3020   -6.0770    0.0000 F   0  0  0  0  0  0  0  0  0  0  0  0
   -1.4289   -5.7750    0.0000 F   0  0  0  0  0  0  0  0  0  0  0  0
  1  2  1  0  0  0  0
  2  3  1  0  0  0  0
  3  4  1  0  0  0  0
  4  5  4  0  0  0  0
  5  6  4  0  0  0  0
  6  7  1  0  0  0  0
  7  8  4  0  0  0  0
  8  9  4  0  0  0  0
  9 10  4  0  0  0  0
 10 11  4  0  0  0  0
  7 11  4  0  0  0  0
 11 12  2  0  0  0  0
 10 13  1  0  0  0  0
 13 14  1  0  0  0  0
 14 15  1  0  0  0  0
 15 16  1  0  0  0  0
  9 16  1  0  0  0  0
  6 17  4  0  0  0  0
 17 18  1  0  0  0  0
 17 19  4  0  0  0  0
 19 20  4  0  0  0  0
  4 20  4  0  0  0  0
 20 21  1  0  0  0  0
 21 22  2  0  0  0  0
 21 23  1  0  0  0  0
 23 24  1  0  0  0  0
 24 25  4  0  0  0  0
 25 26  4  0  0  0  0
 26 27  4  0  0  0  0
 27 28  4  0  0  0  0
 28 29  4  0  0  0  0
 29 30  4  0  0  0  0
 30 31  4  0  0  0  0
 31 32  4  0  0  0  0
 27 32  4  0  0  0  0
 32 33  4  0  0  0  0
 24 33  4  0  0  0  0
  2 34  1  0  0  0  0
 34 35  1  0  0  0  0
 34 36  1  0  0  0  0
 34 37  1  0  0  0  0
M  END
> <IC50(uM)>
6.5

> <Outcome>
0.0

> <BindingDB ID>
1020484

> <BindingDB MonomerID>
490432

> <BindingDB Ligand Name>
5-fluoro-4-(3-oxo-5,6,7,8-tetrahydro[1,2,4]triazolo[4,3-a]pyridin-2(3H)-yl)-N-(quinolin-7-yl)-2-{[(2S)-1,1,1-trifluoropropan-2-yl]oxy}benzamide::US10968216, Example 100

> <Curation/DataSource>
US Patent

> <Article DOI>
?

> <PMID>
?

> <Patent Number>
US10968216

> <Authors>
Gradl, SN; Nguyen, D; Eis, K; Gunther, J; Stellfeld, T; Janzer, A; Christian, S; Mueller, T; Sheikh, SE; Zhou, HJ; Zhao, C; Sykes, DB; Ferrara, SJ; Liu, K; Herbert, SA; Merz, C; Niehues, M; Nising, CF; Schafer, M; Zimmermann, K; Knablein, J; Thede, K; Faupel, T

> <Link to Ligand in BindingDB>
http://www.bindingdb.org/bind/chemsearch/marvin/MolStructure.jsp?monomerid=490432

> <Link to Ligand-Target Pair in BindingDB>
http://www.bindingdb.org/jsp/dbsearch/PrimarySearch_ki.jsp?energyterm=kJ/mole&tag=r21&monomerid=490432&enzyme=Dihydroorotate+dehydrogenase&column=ki&startPg=0&Increment=50&submit=Search

> <PubChem CID>
134474349

> <PubChem SID>
447117159

$$$$

  Mrv2115 07222212352D          

 27 30  0  0  0  0            999 V2000
   -1.4289   -4.9500    0.0000 C   0  0  0  0  0  0  0  0  0  0  0  0
   -1.4289   -4.1250    0.0000 O   0  0  0  0  0  0  0  0  0  0  0  0
   -2.1434   -3.7125    0.0000 C   0  0  0  0  0  0  0  0  0  0  0  0
   -2.8579   -4.1250    0.0000 C   0  0  0  0  0  0  0  0  0  0  0  0
   -3.5724   -3.7125    0.0000 C   0  0  0  0  0  0  0  0  0  0  0  0
   -3.5724   -2.8875    0.0000 C   0  0  0  0  0  0  0  0  0  0  0  0
   -2.8579   -2.4750    0.0000 C   0  0  0  0  0  0  0  0  0  0  0  0
   -2.1434   -2.8875    0.0000 C   0  0  0  0  0  0  0  0  0  0  0  0
   -1.4289   -2.4750    0.0000 C   0  0  0  0  0  0  0  0  0  0  0  0
   -1.4289   -1.6500    0.0000 C   0  0  0  0  0  0  0  0  0  0  0  0
   -0.7145   -1.2375    0.0000 C   0  0  0  0  0  0  0  0  0  0  0  0
    0.0000   -1.6500    0.0000 C   0  0  0  0  0  0  0  0  0  0  0  0
    0.7145   -1.2375    0.0000 C   0  0  0  0  0  0  0  0  0  0  0  0
    0.7145   -0.4125    0.0000 C   0  0  0  0  0  0  0  0  0  0  0  0
    1.4289    0.0000    0.0000 C   0  0  0  0  0  0  0  0  0  0  0  0
    1.4289    0.8250    0.0000 C   0  0  0  0  0  0  0  0  0  0  0  0
    2.1434    1.2375    0.0000 O   0  0  0  0  0  0  0  0  0  0  0  0
    0.7145    1.2375    0.0000 O   0  0  0  0  0  0  0  0  0  0  0  0
    2.1434   -0.4125    0.0000 C   0  0  0  0  0  0  0  0  0  0  0  0
    2.8579    0.0000    0.0000 C   0  0  0  0  0  0  0  0  0  0  0  0
    3.5724   -0.4125    0.0000 C   0  0  0  0  0  0  0  0  0  0  0  0
    3.5724   -1.2375    0.0000 C   0  0  0  0  0  0  0  0  0  0  0  0
    2.8579   -1.6500    0.0000 C   0  0  0  0  0  0  0  0  0  0  0  0
    2.1434   -1.2375    0.0000 C   0  0  0  0  0  0  0  0  0  0  0  0
    1.4289   -1.6500    0.0000 N   0  0  0  0  0  0  0  0  0  0  0  0
    0.0000   -2.4750    0.0000 C   0  0  0  0  0  0  0  0  0  0  0  0
   -0.7145   -2.8875    0.0000 C   0  0  0  0  0  0  0  0  0  0  0  0
  1  2  1  0  0  0  0
  2  3  1  0  0  0  0
  3  4  4  0  0  0  0
  4  5  4  0  0  0  0
  5  6  4  0  0  0  0
  6  7  4  0  0  0  0
  7  8  4  0  0  0  0
  3  8  4  0  0  0  0
  8  9  1  0  0  0  0
  9 10  4  0  0  0  0
 10 11  4  0  0  0  0
 11 12  4  0  0  0  0
 12 13  1  0  0  0  0
 13 14  4  0  0  0  0
 14 15  4  0  0  0  0
 15 16  1  0  0  0  0
 16 17  2  0  0  0  0
 16 18  1  0  0  0  0
 15 19  4  0  0  0  0
 19 20  4  0  0  0  0
 20 21  4  0  0  0  0
 21 22  4  0  0  0  0
 22 23  4  0  0  0  0
 23 24  4  0  0  0  0
 19 24  4  0  0  0  0
 24 25  4  0  0  0  0
 13 25  4  0  0  0  0
 12 26  4  0  0  0  0
 26 27  4  0  0  0  0
  9 27  4  0  0  0  0
M  END
> <IC50(uM)>
0.127

> <Outcome>
1.0

> <BindingDB ID>
51126199

> <BindingDB MonomerID>
50461885

> <BindingDB Ligand Name>
CHEMBL4229222

> <Curation/DataSource>
ChEMBL

> <Article DOI>
10.1021/acs.jmedchem.7b01862

> <PMID>
29727569

> <Patent Number>
?

> <Authors>
Madak, JT; Cuthbertson, CR; Miyata, Y; Tamura, S; Petrunak, EM; Stuckey, JA; Han, Y; He, M; Sun, D; Showalter, HD; Neamati, N

> <Link to Ligand in BindingDB>
http://www.bindingdb.org/bind/chemsearch/marvin/MolStructure.jsp?monomerid=50461885

> <Link to Ligand-Target Pair in BindingDB>
http://www.bindingdb.org/jsp/dbsearch/PrimarySearch_ki.jsp?energyterm=kJ/mole&tag=r21&monomerid=50461885&enzyme=Dihydroorotate+dehydrogenase&column=ki&startPg=0&Increment=50&submit=Search

> <PubChem CID>
145986592

> <PubChem SID>
433929150

$$$$

  Mrv2115 07222212352D          

 21 23  0  0  0  0            999 V2000
   -1.7224    3.3000    0.0000 C   0  0  0  0  0  0  0  0  0  0  0  0
   -1.0079    3.7125    0.0000 C   0  0  0  0  0  0  0  0  0  0  0  0
   -0.2934    3.3000    0.0000 C   0  0  0  0  0  0  0  0  0  0  0  0
    0.4210    3.7125    0.0000 C   0  0  0  0  0  0  0  0  0  0  0  0
    1.1355    3.3000    0.0000 C   0  0  0  0  0  0  0  0  0  0  0  0
    1.8500    3.7125    0.0000 C   0  0  0  0  0  0  0  0  0  0  0  0
    2.5645    3.3000    0.0000 C   0  0  0  0  0  0  0  0  0  0  0  0
    2.5645    2.4750    0.0000 C   0  0  0  0  0  0  0  0  0  0  0  0
    3.2789    2.0625    0.0000 N   0  0  0  0  0  0  0  0  0  0  0  0
    3.2789    1.2375    0.0000 C   0  0  0  0  0  0  0  0  0  0  0  0
    3.9934    0.8250    0.0000 C   0  0  0  0  0  0  0  0  0  0  0  0
    3.9934    0.0000    0.0000 C   0  0  0  0  0  0  0  0  0  0  0  0
    4.7079   -0.4125    0.0000 C   0  0  0  0  0  0  0  0  0  0  0  0
    3.2789   -0.4125    0.0000 N   0  0  0  0  0  0  0  0  0  0  0  0
    2.5645    0.0000    0.0000 C   0  0  0  0  0  0  0  0  0  0  0  0
    1.7798   -0.2549    0.0000 N   0  0  0  0  0  0  0  0  0  0  0  0
    1.2949    0.4125    0.0000 C   0  0  0  0  0  0  0  0  0  0  0  0
    1.7798    1.0799    0.0000 N   0  0  0  0  0  0  0  0  0  0  0  0
    2.5645    0.8250    0.0000 N   0  0  0  0  0  0  0  0  0  0  0  0
    1.8500    2.0625    0.0000 C   0  0  0  0  0  0  0  0  0  0  0  0
    1.1355    2.4750    0.0000 C   0  0  0  0  0  0  0  0  0  0  0  0
  1  2  1  0  0  0  0
  2  3  1  0  0  0  0
  3  4  1  0  0  0  0
  4  5  1  0  0  0  0
  5  6  4  0  0  0  0
  6  7  4  0  0  0  0
  7  8  4  0  0  0  0
  8  9  1  0  0  0  0
  9 10  1  0  0  0  0
 10 11  4  0  0  0  0
 11 12  4  0  0  0  0
 12 13  1  0  0  0  0
 12 14  4  0  0  0  0
 14 15  4  0  0  0  0
 15 16  4  0  0  0  0
 16 17  4  0  0  0  0
 17 18  4  0  0  0  0
 18 19  4  0  0  0  0
 10 19  4  0  0  0  0
 15 19  4  0  0  0  0
  8 20  4  0  0  0  0
 20 21  4  0  0  0  0
  5 21  4  0  0  0  0
M  END
> <IC50(uM)>
100.0

> <Outcome>
0.0

> <BindingDB ID>
50643143

> <BindingDB MonomerID>
50345400

> <BindingDB Ligand Name>
CHEMBL1784556::N-(4-Butylphenyl)-5-methyl-[1,2,4]triazolo[1,5-a]pyrimidin-7-amine

> <Curation/DataSource>
ChEMBL

> <Article DOI>
10.1021/jm200265b

> <PMID>
21517059

> <Patent Number>
?

> <Authors>
Gujjar, R; El Mazouni, F; White, KL; White, J; Creason, S; Shackleford, DM; Deng, X; Charman, WN; Bathurst, I; Burrows, J; Floyd, DM; Matthews, D; Buckner, FS; Charman, SA; Phillips, MA; Rathod, PK

> <Link to Ligand in BindingDB>
http://www.bindingdb.org/bind/chemsearch/marvin/MolStructure.jsp?monomerid=50345400

> <Link to Ligand-Target Pair in BindingDB>
http://www.bindingdb.org/jsp/dbsearch/PrimarySearch_ki.jsp?energyterm=kJ/mole&tag=r21&monomerid=50345400&enzyme=Dihydroorotate+dehydrogenase&column=ki&startPg=0&Increment=50&submit=Search

> <PubChem CID>
44131922

> <PubChem SID>
131348336

$$$$

  Mrv2115 07222212352D          

 33 36  0  0  0  0            999 V2000
    1.4289   -0.0000    0.0000 C   0  0  0  0  0  0  0  0  0  0  0  0
    0.7145   -0.4125    0.0000 N   0  0  0  0  0  0  0  0  0  0  0  0
    0.0000    0.0000    0.0000 N   0  0  0  0  0  0  0  0  0  0  0  0
    0.0000    0.8250    0.0000 C   0  0  0  0  0  0  0  0  0  0  0  0
   -0.7145    1.2375    0.0000 C   0  0  0  0  0  0  0  0  0  0  0  0
   -1.4289    0.8250    0.0000 C   0  0  0  0  0  0  0  0  0  0  0  0
   -2.1434    1.2375    0.0000 C   0  0  0  0  0  0  0  0  0  0  0  0
   -2.1434    2.0625    0.0000 C   0  0  0  0  0  0  0  0  0  0  0  0
   -1.4289    2.4750    0.0000 C   0  0  0  0  0  0  0  0  0  0  0  0
   -0.7145    2.0625    0.0000 C   0  0  0  0  0  0  0  0  0  0  0  0
    0.0000    2.4750    0.0000 C   0  0  0  0  0  0  0  0  0  0  0  0
    0.7145    2.0625    0.0000 O   0  0  0  0  0  0  0  0  0  0  0  0
    0.0000    3.3000    0.0000 O   0  0  0  0  0  0  0  0  0  0  0  0
    0.7145    3.7125    0.0000 C   0  0  0  0  0  0  0  0  0  0  0  0
    0.7145    4.5375    0.0000 C   0  0  0  0  0  0  0  0  0  0  0  0
    0.0000    4.9500    0.0000 C   0  0  0  0  0  0  0  0  0  0  0  0
   -0.7145    4.5375    0.0000 C   0  0  0  0  0  0  0  0  0  0  0  0
   -1.4289    4.9500    0.0000 C   0  0  0  0  0  0  0  0  0  0  0  0
   -1.4289    5.7750    0.0000 C   0  0  0  0  0  0  0  0  0  0  0  0
   -0.7145    6.1875    0.0000 C   0  0  0  0  0  0  0  0  0  0  0  0
    0.0000    5.7750    0.0000 C   0  0  0  0  0  0  0  0  0  0  0  0
    0.7145   -1.2375    0.0000 C   0  0  0  0  0  0  0  0  0  0  0  0
    1.3819   -1.7224    0.0000 N   0  0  0  0  0  0  0  0  0  0  0  0
    1.1270   -2.5070    0.0000 C   0  0  0  0  0  0  0  0  0  0  0  0
    1.6119   -3.1745    0.0000 C   0  0  0  0  0  0  0  0  0  0  0  0
    2.4324   -3.0882    0.0000 C   0  0  0  0  0  0  0  0  0  0  0  0
    2.9173   -3.7557    0.0000 C   0  0  0  0  0  0  0  0  0  0  0  0
    2.5817   -4.5094    0.0000 C   0  0  0  0  0  0  0  0  0  0  0  0
    1.7613   -4.5956    0.0000 C   0  0  0  0  0  0  0  0  0  0  0  0
    1.2763   -3.9282    0.0000 C   0  0  0  0  0  0  0  0  0  0  0  0
    0.4559   -4.0144    0.0000 Cl  0  0  0  0  0  0  0  0  0  0  0  0
    0.3020   -2.5070    0.0000 C   0  0  0  0  0  0  0  0  0  0  0  0
    0.0470   -1.7224    0.0000 S   0  0  0  0  0  0  0  0  0  0  0  0
  1  2  1  0  0  0  0
  2  3  1  0  0  0  0
  3  4  2  0  0  0  0
  4  5  1  0  0  0  0
  5  6  4  0  0  0  0
  6  7  4  0  0  0  0
  7  8  4  0  0  0  0
  8  9  4  0  0  0  0
  9 10  4  0  0  0  0
  5 10  4  0  0  0  0
 10 11  1  0  0  0  0
 11 12  2  0  0  0  0
 11 13  1  0  0  0  0
 13 14  1  0  0  0  0
 14 15  1  0  0  0  0
 15 16  1  0  0  0  0
 16 17  4  0  0  0  0
 17 18  4  0  0  0  0
 18 19  4  0  0  0  0
 19 20  4  0  0  0  0
 20 21  4  0  0  0  0
 16 21  4  0  0  0  0
  2 22  1  0  0  0  0
 22 23  4  0  0  0  0
 23 24  4  0  0  0  0
 24 25  1  0  0  0  0
 25 26  4  0  0  0  0
 26 27  4  0  0  0  0
 27 28  4  0  0  0  0
 28 29  4  0  0  0  0
 29 30  4  0  0  0  0
 25 30  4  0  0  0  0
 30 31  1  0  0  0  0
 24 32  4  0  0  0  0
 32 33  4  0  0  0  0
 22 33  4  0  0  0  0
M  END
> <IC50(uM)>
50.0

> <Outcome>
0.0

> <BindingDB ID>
1001156

> <BindingDB MonomerID>
482842

> <BindingDB Ligand Name>
US10919869, No.  B9

> <Curation/DataSource>
US Patent

> <Article DOI>
?

> <PMID>
?

> <Patent Number>
US10919869

> <Authors>
Li, H; Xu, Y; Wang, R; Zhao, Z; Song, W; Xu, L

> <Link to Ligand in BindingDB>
http://www.bindingdb.org/bind/chemsearch/marvin/MolStructure.jsp?monomerid=482842

> <Link to Ligand-Target Pair in BindingDB>
http://www.bindingdb.org/jsp/dbsearch/PrimarySearch_ki.jsp?energyterm=kJ/mole&tag=r21&monomerid=482842&enzyme=Dihydroorotate+dehydrogenase&column=ki&startPg=0&Increment=50&submit=Search

> <PubChem CID>
132157959

> <PubChem SID>
443551982

$$$$

  Mrv2115 07222212352D          

 26 29  0  0  0  0            999 V2000
    5.4957    4.8229    0.0000 C   0  0  0  0  0  0  0  0  0  0  0  0
    6.2102    4.4104    0.0000 C   0  0  0  0  0  0  0  0  0  0  0  0
    6.9246    4.8229    0.0000 C   0  0  0  0  0  0  0  0  0  0  0  0
    7.6391    4.4104    0.0000 C   0  0  0  0  0  0  0  0  0  0  0  0
    7.6391    3.5854    0.0000 C   0  0  0  0  0  0  0  0  0  0  0  0
    6.9246    3.1729    0.0000 C   0  0  0  0  0  0  0  0  0  0  0  0
    6.2102    3.5854    0.0000 C   0  0  0  0  0  0  0  0  0  0  0  0
    5.4957    3.1729    0.0000 C   0  0  0  0  0  0  0  0  0  0  0  0
    5.4957    2.3479    0.0000 C   0  0  0  0  0  0  0  0  0  0  0  0
    4.7812    1.9354    0.0000 C   0  0  0  0  0  0  0  0  0  0  0  0
    4.0668    2.3479    0.0000 C   0  0  0  0  0  0  0  0  0  0  0  0
    3.3523    1.9354    0.0000 C   0  0  0  0  0  0  0  0  0  0  0  0
    3.3523    1.1104    0.0000 C   0  0  0  0  0  0  0  0  0  0  0  0
    2.6378    0.6979    0.0000 C   0  0  0  0  0  0  0  0  0  0  0  0
    2.6378   -0.1271    0.0000 C   0  0  0  0  0  0  0  0  0  0  0  0
    1.9233   -0.5396    0.0000 N   0  0  0  0  0  0  0  0  0  0  0  0
    3.3523   -0.5396    0.0000 O   0  0  0  0  0  0  0  0  0  0  0  0
    1.9233    1.1104    0.0000 C   0  0  0  0  0  0  0  0  0  0  0  0
    1.9233    1.9354    0.0000 C   0  0  0  0  0  0  0  0  0  0  0  0
    2.6378    2.3479    0.0000 C   0  0  0  0  0  0  0  0  0  0  0  0
    1.1387    2.1904    0.0000 N   0  0  0  0  0  0  0  0  0  0  0  0
    0.6538    1.5229    0.0000 N   0  0  0  0  0  0  0  0  0  0  0  0
    1.1387    0.8555    0.0000 N   0  0  0  0  0  0  0  0  0  0  0  0
    0.8838    0.0709    0.0000 C   0  0  0  0  0  0  0  0  0  0  0  0
    4.0668    3.1729    0.0000 C   0  0  0  0  0  0  0  0  0  0  0  0
    4.7812    3.5854    0.0000 C   0  0  0  0  0  0  0  0  0  0  0  0
  1  2  1  0  0  0  0
  2  3  4  0  0  0  0
  3  4  4  0  0  0  0
  4  5  4  0  0  0  0
  5  6  4  0  0  0  0
  6  7  4  0  0  0  0
  2  7  4  0  0  0  0
  7  8  1  0  0  0  0
  8  9  4  0  0  0  0
  9 10  4  0  0  0  0
 10 11  4  0  0  0  0
 11 12  1  0  0  0  0
 12 13  4  0  0  0  0
 13 14  4  0  0  0  0
 14 15  1  0  0  0  0
 15 16  1  0  0  0  0
 15 17  2  0  0  0  0
 14 18  4  0  0  0  0
 18 19  4  0  0  0  0
 19 20  4  0  0  0  0
 12 20  4  0  0  0  0
 19 21  4  0  0  0  0
 21 22  4  0  0  0  0
 22 23  4  0  0  0  0
 18 23  4  0  0  0  0
 23 24  1  0  0  0  0
 11 25  4  0  0  0  0
 25 26  4  0  0  0  0
  8 26  4  0  0  0  0
M  END
> <IC50(uM)>
0.1

> <Outcome>
1.0

> <BindingDB ID>
1100159

> <BindingDB MonomerID>
520618

> <BindingDB Ligand Name>
1-methyl-5-(2'-methyl-[1,1'-biphenyl]-4-yl)-1H-benzo[d][1,2,3]triazole-7- carboxamide;::US11147801, Compound 2

> <Curation/DataSource>
US Patent

> <Article DOI>
?

> <PMID>
?

> <Patent Number>
US11147801

> <Authors>
Nellore, K; Hosahalli, S

> <Link to Ligand in BindingDB>
http://www.bindingdb.org/bind/chemsearch/marvin/MolStructure.jsp?monomerid=520618

> <Link to Ligand-Target Pair in BindingDB>
http://www.bindingdb.org/jsp/dbsearch/PrimarySearch_ki.jsp?energyterm=kJ/mole&tag=r21&monomerid=520618&enzyme=Dihydroorotate+dehydrogenase&column=ki&startPg=0&Increment=50&submit=Search

> <PubChem CID>
?

> <PubChem SID>
?

$$$$

  Mrv2115 07222212352D          

 24 27  0  0  0  0            999 V2000
    1.8500    2.0625    0.0000 O   0  0  0  0  0  0  0  0  0  0  0  0
    2.5645    2.4750    0.0000 C   0  0  0  0  0  0  0  0  0  0  0  0
    3.2789    2.0625    0.0000 N   0  0  0  0  0  0  0  0  0  0  0  0
    3.2789    1.2375    0.0000 C   0  0  0  0  0  0  0  0  0  0  0  0
    3.9934    0.8250    0.0000 C   0  0  0  0  0  0  0  0  0  0  0  0
    3.9934    0.0000    0.0000 C   0  0  0  0  0  0  0  0  0  0  0  0
    3.2789   -0.4125    0.0000 C   0  0  0  0  0  0  0  0  0  0  0  0
    2.5645    0.0000    0.0000 C   0  0  0  0  0  0  0  0  0  0  0  0
    2.5645    0.8250    0.0000 C   0  0  0  0  0  0  0  0  0  0  0  0
    1.7798    1.0799    0.0000 C   0  0  0  0  0  0  0  0  0  0  0  0
    1.2949    0.4125    0.0000 N   0  0  0  0  0  0  0  0  0  0  0  0
    1.7798   -0.2549    0.0000 N   0  0  0  0  0  0  0  0  0  0  0  0
    1.5249   -1.0396    0.0000 C   0  0  0  0  0  0  0  0  0  0  0  0
    2.0769   -1.6527    0.0000 C   0  0  0  0  0  0  0  0  0  0  0  0
    1.8220   -2.4373    0.0000 C   0  0  0  0  0  0  0  0  0  0  0  0
    1.0150   -2.6088    0.0000 C   0  0  0  0  0  0  0  0  0  0  0  0
    0.4630   -1.9957    0.0000 C   0  0  0  0  0  0  0  0  0  0  0  0
    0.7179   -1.2111    0.0000 C   0  0  0  0  0  0  0  0  0  0  0  0
    0.1659   -0.5980    0.0000 F   0  0  0  0  0  0  0  0  0  0  0  0
    2.5645    3.3000    0.0000 C   0  0  0  0  0  0  0  0  0  0  0  0
    1.8970    3.7849    0.0000 C   0  0  0  0  0  0  0  0  0  0  0  0
    2.1520    4.5695    0.0000 S   0  0  0  0  0  0  0  0  0  0  0  0
    2.9770    4.5695    0.0000 C   0  0  0  0  0  0  0  0  0  0  0  0
    3.2319    3.7849    0.0000 N   0  0  0  0  0  0  0  0  0  0  0  0
  1  2  2  0  0  0  0
  2  3  1  0  0  0  0
  3  4  1  0  0  0  0
  4  5  1  0  0  0  0
  5  6  1  0  0  0  0
  6  7  1  0  0  0  0
  7  8  1  0  0  0  0
  8  9  4  0  0  0  0
  4  9  1  0  0  0  0
  9 10  4  0  0  0  0
 10 11  4  0  0  0  0
 11 12  4  0  0  0  0
  8 12  4  0  0  0  0
 12 13  1  0  0  0  0
 13 14  4  0  0  0  0
 14 15  4  0  0  0  0
 15 16  4  0  0  0  0
 16 17  4  0  0  0  0
 17 18  4  0  0  0  0
 13 18  4  0  0  0  0
 18 19  1  0  0  0  0
  2 20  1  0  0  0  0
 20 21  4  0  0  0  0
 21 22  4  0  0  0  0
 22 23  4  0  0  0  0
 23 24  4  0  0  0  0
 20 24  4  0  0  0  0
M  END
> <IC50(uM)>
1.11

> <Outcome>
0.0

> <BindingDB ID>
993073

> <BindingDB MonomerID>
477575

> <BindingDB Ligand Name>
N-[1-(2-fluorophenyl)-4,5,6,7-tetrahydro-1H-indazol-4-yl]-1,3-thiazole-4-carboxamide::US10889564, Example 4

> <Curation/DataSource>
US Patent

> <Article DOI>
?

> <PMID>
?

> <Patent Number>
US10889564

> <Authors>
Lain, S; Drummond, C; Leeuwen, IV; Haraldsson, M; Johansson, L; Sandberg, L; Yngve, U

> <Link to Ligand in BindingDB>
http://www.bindingdb.org/bind/chemsearch/marvin/MolStructure.jsp?monomerid=477575

> <Link to Ligand-Target Pair in BindingDB>
http://www.bindingdb.org/jsp/dbsearch/PrimarySearch_ki.jsp?energyterm=kJ/mole&tag=r21&monomerid=477575&enzyme=Dihydroorotate+dehydrogenase&column=ki&startPg=0&Increment=50&submit=Search

> <PubChem CID>
45180288

> <PubChem SID>
442137192

$$$$

  Mrv2115 07222212352D          

 32 35  0  0  0  0            999 V2000
   -0.7145    1.2375    0.0000 C   0  0  0  0  0  0  0  0  0  0  0  0
    0.0000    0.8250    0.0000 C   0  0  0  0  0  0  0  0  0  0  0  0
    0.0000   -0.0000    0.0000 O   0  0  0  0  0  0  0  0  0  0  0  0
    0.7145   -0.4125    0.0000 C   0  0  0  0  0  0  0  0  0  0  0  0
    1.4289   -0.0000    0.0000 O   0  0  0  0  0  0  0  0  0  0  0  0
    0.7145   -1.2375    0.0000 C   0  0  0  0  0  0  0  0  0  0  0  0
    1.3819   -1.7224    0.0000 S   0  0  0  0  0  0  0  0  0  0  0  0
    1.1270   -2.5070    0.0000 C   0  0  0  0  0  0  0  0  0  0  0  0
    1.6119   -3.1745    0.0000 N   0  0  0  0  0  0  0  0  0  0  0  0
    1.2763   -3.9282    0.0000 C   0  0  0  0  0  0  0  0  0  0  0  0
    1.7613   -4.5956    0.0000 C   0  0  0  0  0  0  0  0  0  0  0  0
    1.4257   -5.3493    0.0000 C   0  0  0  0  0  0  0  0  0  0  0  0
    0.6052   -5.4355    0.0000 C   0  0  0  0  0  0  0  0  0  0  0  0
    0.2697   -6.1892    0.0000 O   0  0  0  0  0  0  0  0  0  0  0  0
    0.7546   -6.8566    0.0000 C   0  0  0  0  0  0  0  0  0  0  0  0
    0.4190   -7.6103    0.0000 C   0  0  0  0  0  0  0  0  0  0  0  0
    0.9040   -8.2777    0.0000 C   0  0  0  0  0  0  0  0  0  0  0  0
    0.5684   -9.0314    0.0000 C   0  0  0  0  0  0  0  0  0  0  0  0
   -0.2521   -9.1176    0.0000 C   0  0  0  0  0  0  0  0  0  0  0  0
   -0.7370   -8.4502    0.0000 C   0  0  0  0  0  0  0  0  0  0  0  0
   -0.4015   -7.6965    0.0000 C   0  0  0  0  0  0  0  0  0  0  0  0
    0.1203   -4.7681    0.0000 C   0  0  0  0  0  0  0  0  0  0  0  0
   -0.7002   -4.8543    0.0000 Cl  0  0  0  0  0  0  0  0  0  0  0  0
    0.4559   -4.0144    0.0000 C   0  0  0  0  0  0  0  0  0  0  0  0
    0.3020   -2.5070    0.0000 N   0  0  0  0  0  0  0  0  0  0  0  0
    0.0470   -1.7224    0.0000 C   0  0  0  0  0  0  0  0  0  0  0  0
   -0.7376   -1.4675    0.0000 C   0  0  0  0  0  0  0  0  0  0  0  0
   -1.3507   -2.0195    0.0000 C   0  0  0  0  0  0  0  0  0  0  0  0
   -2.1353   -1.7646    0.0000 C   0  0  0  0  0  0  0  0  0  0  0  0
   -2.3068   -0.9576    0.0000 C   0  0  0  0  0  0  0  0  0  0  0  0
   -1.6937   -0.4056    0.0000 C   0  0  0  0  0  0  0  0  0  0  0  0
   -0.9091   -0.6605    0.0000 C   0  0  0  0  0  0  0  0  0  0  0  0
  1  2  1  0  0  0  0
  2  3  1  0  0  0  0
  3  4  1  0  0  0  0
  4  5  2  0  0  0  0
  4  6  1  0  0  0  0
  6  7  4  0  0  0  0
  7  8  4  0  0  0  0
  8  9  1  0  0  0  0
  9 10  1  0  0  0  0
 10 11  4  0  0  0  0
 11 12  4  0  0  0  0
 12 13  4  0  0  0  0
 13 14  1  0  0  0  0
 14 15  1  0  0  0  0
 15 16  1  0  0  0  0
 16 17  4  0  0  0  0
 17 18  4  0  0  0  0
 18 19  4  0  0  0  0
 19 20  4  0  0  0  0
 20 21  4  0  0  0  0
 16 21  4  0  0  0  0
 13 22  4  0  0  0  0
 22 23  1  0  0  0  0
 22 24  4  0  0  0  0
 10 24  4  0  0  0  0
  8 25  4  0  0  0  0
 25 26  4  0  0  0  0
  6 26  4  0  0  0  0
 26 27  1  0  0  0  0
 27 28  4  0  0  0  0
 28 29  4  0  0  0  0
 29 30  4  0  0  0  0
 30 31  4  0  0  0  0
 31 32  4  0  0  0  0
 27 32  4  0  0  0  0
M  END
> <IC50(uM)>
10.0

> <Outcome>
0.0

> <BindingDB ID>
50312498

> <BindingDB MonomerID>
50071806

> <BindingDB Ligand Name>
CHEMBL3410618

> <Curation/DataSource>
ChEMBL

> <Article DOI>
10.1021/jm501127s

> <PMID>
25580811

> <Patent Number>
?

> <Authors>
Zhu, J; Han, L; Diao, Y; Ren, X; Xu, M; Xu, L; Li, S; Li, Q; Dong, D; Huang, J; Liu, X; Zhao, Z; Wang, R; Zhu, L; Xu, Y; Qian, X; Li, H

> <Link to Ligand in BindingDB>
http://www.bindingdb.org/bind/chemsearch/marvin/MolStructure.jsp?monomerid=50071806

> <Link to Ligand-Target Pair in BindingDB>
http://www.bindingdb.org/jsp/dbsearch/PrimarySearch_ki.jsp?energyterm=kJ/mole&tag=r21&monomerid=50071806&enzyme=Dihydroorotate+dehydrogenase&column=ki&startPg=0&Increment=50&submit=Search

> <PubChem CID>
118732526

> <PubChem SID>
103965516

$$$$

  Mrv2115 07222212352D          

 37 41  0  0  0  0            999 V2000
   -5.1659   -2.8414    0.0000 C   0  0  0  0  0  0  0  0  0  0  0  0
   -5.5784   -2.1269    0.0000 C   0  0  0  0  0  0  0  0  0  0  0  0
   -6.4034   -2.1269    0.0000 C   0  0  0  0  0  0  0  0  0  0  0  0
   -6.8159   -1.4124    0.0000 C   0  0  0  0  0  0  0  0  0  0  0  0
   -7.6409   -1.4124    0.0000 F   0  0  0  0  0  0  0  0  0  0  0  0
   -6.4034   -0.6979    0.0000 C   0  0  0  0  0  0  0  0  0  0  0  0
   -5.5784   -0.6979    0.0000 C   0  0  0  0  0  0  0  0  0  0  0  0
   -5.1659   -1.4124    0.0000 C   0  0  0  0  0  0  0  0  0  0  0  0
   -4.3409   -1.4124    0.0000 N   0  0  0  0  0  0  0  0  0  0  0  0
   -3.9284   -0.6979    0.0000 C   0  0  0  0  0  0  0  0  0  0  0  0
   -4.3409    0.0165    0.0000 O   0  0  0  0  0  0  0  0  0  0  0  0
   -3.1034   -0.6979    0.0000 C   0  0  0  0  0  0  0  0  0  0  0  0
   -2.6909    0.0165    0.0000 C   0  0  0  0  0  0  0  0  0  0  0  0
   -1.8659    0.0165    0.0000 C   0  0  0  0  0  0  0  0  0  0  0  0
   -1.4534    0.7310    0.0000 F   0  0  0  0  0  0  0  0  0  0  0  0
   -1.4534   -0.6979    0.0000 C   0  0  0  0  0  0  0  0  0  0  0  0
   -0.6284   -0.6979    0.0000 N   0  0  0  0  0  0  0  0  0  0  0  0
   -0.1435   -1.3654    0.0000 N   0  0  0  0  0  0  0  0  0  0  0  0
    0.6411   -1.1104    0.0000 C   0  0  0  0  0  0  0  0  0  0  0  0
    0.6411   -0.2854    0.0000 N   0  0  0  0  0  0  0  0  0  0  0  0
   -0.1435   -0.0305    0.0000 C   0  0  0  0  0  0  0  0  0  0  0  0
   -0.3984    0.7541    0.0000 O   0  0  0  0  0  0  0  0  0  0  0  0
    1.3556    0.1271    0.0000 C   0  0  0  0  0  0  0  0  0  0  0  0
    2.0701   -0.2854    0.0000 C   0  0  0  0  0  0  0  0  0  0  0  0
    2.0701   -1.1104    0.0000 C   0  0  0  0  0  0  0  0  0  0  0  0
    1.3556   -1.5229    0.0000 C   0  0  0  0  0  0  0  0  0  0  0  0
   -1.8659   -1.4124    0.0000 C   0  0  0  0  0  0  0  0  0  0  0  0
   -2.6909   -1.4124    0.0000 C   0  0  0  0  0  0  0  0  0  0  0  0
   -3.1034   -2.1269    0.0000 O   0  0  0  0  0  0  0  0  0  0  0  0
   -2.6909   -2.8414    0.0000 C   0  0  0  0  0  0  0  0  0  0  0  0
   -1.8659   -2.8414    0.0000 C   0  0  0  0  0  0  0  0  0  0  0  0
   -3.1034   -3.5558    0.0000 C   0  0  0  0  0  0  0  0  0  0  0  0
   -2.6909   -4.2703    0.0000 C   0  0  0  0  0  0  0  0  0  0  0  0
   -3.1034   -4.9848    0.0000 C   0  0  0  0  0  0  0  0  0  0  0  0
   -3.9284   -4.9848    0.0000 C   0  0  0  0  0  0  0  0  0  0  0  0
   -4.3409   -4.2703    0.0000 C   0  0  0  0  0  0  0  0  0  0  0  0
   -3.9284   -3.5558    0.0000 C   0  0  0  0  0  0  0  0  0  0  0  0
  1  2  1  0  0  0  0
  2  3  4  0  0  0  0
  3  4  4  0  0  0  0
  4  5  1  0  0  0  0
  4  6  4  0  0  0  0
  6  7  4  0  0  0  0
  7  8  4  0  0  0  0
  2  8  4  0  0  0  0
  8  9  1  0  0  0  0
  9 10  1  0  0  0  0
 10 11  2  0  0  0  0
 10 12  1  0  0  0  0
 12 13  4  0  0  0  0
 13 14  4  0  0  0  0
 14 15  1  0  0  0  0
 14 16  4  0  0  0  0
 16 17  1  0  0  0  0
 17 18  4  0  0  0  0
 18 19  4  0  0  0  0
 19 20  4  0  0  0  0
 20 21  4  0  0  0  0
 17 21  4  0  0  0  0
 21 22  2  0  0  0  0
 20 23  1  0  0  0  0
 23 24  1  0  0  0  0
 24 25  1  0  0  0  0
 25 26  1  0  0  0  0
 19 26  1  0  0  0  0
 16 27  4  0  0  0  0
 27 28  4  0  0  0  0
 12 28  4  0  0  0  0
 28 29  1  0  0  0  0
 29 30  1  0  0  0  0
 30 31  1  0  0  0  0
 30 32  1  0  0  0  0
 32 33  1  0  0  0  0
 33 34  1  0  0  0  0
 34 35  1  0  0  0  0
 35 36  1  0  0  0  0
 36 37  1  0  0  0  0
 32 37  1  0  0  0  0
M  END
> <IC50(uM)>
0.005

> <Outcome>
1.0

> <BindingDB ID>
1020545

> <BindingDB MonomerID>
490484

> <BindingDB Ligand Name>
2-[(1S)-1-cyclohexylethoxy]-5-fluoro-N-(4-fluoro-2-methylphenyl)-4-(3-oxo-5,6,7,8-tetrahydro[1,2,4]triazolo[4,3-a]pyridin-2(3H)-yl)benzamide::US10968216, Example 152

> <Curation/DataSource>
US Patent

> <Article DOI>
?

> <PMID>
?

> <Patent Number>
US10968216

> <Authors>
Gradl, SN; Nguyen, D; Eis, K; Gunther, J; Stellfeld, T; Janzer, A; Christian, S; Mueller, T; Sheikh, SE; Zhou, HJ; Zhao, C; Sykes, DB; Ferrara, SJ; Liu, K; Herbert, SA; Merz, C; Niehues, M; Nising, CF; Schafer, M; Zimmermann, K; Knablein, J; Thede, K; Faupel, T

> <Link to Ligand in BindingDB>
http://www.bindingdb.org/bind/chemsearch/marvin/MolStructure.jsp?monomerid=490484

> <Link to Ligand-Target Pair in BindingDB>
http://www.bindingdb.org/jsp/dbsearch/PrimarySearch_ki.jsp?energyterm=kJ/mole&tag=r21&monomerid=490484&enzyme=Dihydroorotate+dehydrogenase&column=ki&startPg=0&Increment=50&submit=Search

> <PubChem CID>
134474412

> <PubChem SID>
447117211

$$$$

  Mrv2115 07222212352D          

 29 31  0  0  0  0            999 V2000
   -7.1447    3.3000    0.0000 C   0  0  0  0  0  0  0  0  0  0  0  0
   -6.4302    2.8875    0.0000 O   0  0  0  0  0  0  0  0  0  0  0  0
   -5.7158    3.3000    0.0000 C   0  0  0  0  0  0  0  0  0  0  0  0
   -5.7158    4.1250    0.0000 O   0  0  0  0  0  0  0  0  0  0  0  0
   -5.0013    2.8875    0.0000 C   0  0  0  0  0  0  0  0  0  0  0  0
   -4.2868    3.3000    0.0000 C   0  0  0  0  0  0  0  0  0  0  0  0
   -3.5724    2.8875    0.0000 C   0  0  0  0  0  0  0  0  0  0  0  0
   -3.5724    2.0625    0.0000 C   0  0  0  0  0  0  0  0  0  0  0  0
   -2.8579    1.6500    0.0000 C   0  0  0  0  0  0  0  0  0  0  0  0
   -2.8579    0.8250    0.0000 C   0  0  0  0  0  0  0  0  0  0  0  0
   -2.1434    0.4125    0.0000 C   0  0  0  0  0  0  0  0  0  0  0  0
   -1.4289    0.8250    0.0000 C   0  0  0  0  0  0  0  0  0  0  0  0
   -0.7145    0.4125    0.0000 C   0  0  0  0  0  0  0  0  0  0  0  0
    0.0000    0.8250    0.0000 C   0  0  0  0  0  0  0  0  0  0  0  0
    0.7145    0.4125    0.0000 C   0  0  0  0  0  0  0  0  0  0  0  0
    1.4289    0.8250    0.0000 C   0  0  0  0  0  0  0  0  0  0  0  0
    1.4289    1.6500    0.0000 C   0  0  0  0  0  0  0  0  0  0  0  0
    2.1434    2.0625    0.0000 O   0  0  0  0  0  0  0  0  0  0  0  0
    0.7145    2.0625    0.0000 O   0  0  0  0  0  0  0  0  0  0  0  0
    2.1434    0.4125    0.0000 N   0  0  0  0  0  0  0  0  0  0  0  0
    2.1434   -0.4125    0.0000 C   0  0  0  0  0  0  0  0  0  0  0  0
    2.8579   -0.8250    0.0000 O   0  0  0  0  0  0  0  0  0  0  0  0
    1.4289   -0.8250    0.0000 N   0  0  0  0  0  0  0  0  0  0  0  0
    0.7145   -0.4125    0.0000 C   0  0  0  0  0  0  0  0  0  0  0  0
    0.0000   -0.8250    0.0000 O   0  0  0  0  0  0  0  0  0  0  0  0
   -3.5724    0.4125    0.0000 C   0  0  0  0  0  0  0  0  0  0  0  0
   -4.2868    0.8250    0.0000 C   0  0  0  0  0  0  0  0  0  0  0  0
   -4.2868    1.6500    0.0000 C   0  0  0  0  0  0  0  0  0  0  0  0
   -5.0013    2.0625    0.0000 C   0  0  0  0  0  0  0  0  0  0  0  0
  1  2  1  0  0  0  0
  2  3  1  0  0  0  0
  3  4  2  0  0  0  0
  3  5  1  0  0  0  0
  5  6  4  0  0  0  0
  6  7  4  0  0  0  0
  7  8  4  0  0  0  0
  8  9  4  0  0  0  0
  9 10  4  0  0  0  0
 10 11  1  0  0  0  0
 11 12  1  0  0  0  0
 12 13  1  0  0  0  0
 13 14  1  0  0  0  0
 14 15  1  0  0  0  0
 15 16  4  0  0  0  0
 16 17  1  0  0  0  0
 17 18  2  0  0  0  0
 17 19  1  0  0  0  0
 16 20  4  0  0  0  0
 20 21  4  0  0  0  0
 21 22  2  0  0  0  0
 21 23  4  0  0  0  0
 23 24  4  0  0  0  0
 15 24  4  0  0  0  0
 24 25  2  0  0  0  0
 10 26  4  0  0  0  0
 26 27  4  0  0  0  0
 27 28  4  0  0  0  0
  8 28  4  0  0  0  0
 28 29  4  0  0  0  0
  5 29  4  0  0  0  0
M  STY  2   1 DAT   2 DAT
M  SAL   1  1  20
M  SDT   1 MRV_IMPLICIT_H                                        
M  SDD   1     0.5304   -0.4125    DR    ALL  0       0  
M  SED   1 IMPL_H1
M  SAL   2  1  23
M  SDT   2 MRV_IMPLICIT_H                                        
M  SDD   2     0.6482   -0.4125    DR    ALL  0       0  
M  SED   2 IMPL_H1
M  END
> <IC50(uM)>
0.052

> <Outcome>
1.0

> <BindingDB ID>
50555381

> <BindingDB MonomerID>
50211714

> <BindingDB Ligand Name>
CHEMBL3938624

> <Curation/DataSource>
ChEMBL

> <Article DOI>
10.1016/j.bmc.2017.01.009

> <PMID>
28118956

> <Patent Number>
?

> <Authors>
Inaoka, DK; Iida, M; Hashimoto, S; Tabuchi, T; Kuranaga, T; Balogun, EO; Honma, T; Tanaka, A; Harada, S; Nara, T; Kita, K; Inoue, M

> <Link to Ligand in BindingDB>
http://www.bindingdb.org/bind/chemsearch/marvin/MolStructure.jsp?monomerid=50211714

> <Link to Ligand-Target Pair in BindingDB>
http://www.bindingdb.org/jsp/dbsearch/PrimarySearch_ki.jsp?energyterm=kJ/mole&tag=r21&monomerid=50211714&enzyme=Dihydroorotate+dehydrogenase&column=ki&startPg=0&Increment=50&submit=Search

> <PubChem CID>
134149204

> <PubChem SID>
375983057

$$$$

  Mrv2115 07222212352D          

 36 40  0  0  0  0            999 V2000
   -5.1659   -2.8414    0.0000 C   0  0  0  0  0  0  0  0  0  0  0  0
   -5.5784   -2.1269    0.0000 C   0  0  0  0  0  0  0  0  0  0  0  0
   -6.4034   -2.1269    0.0000 C   0  0  0  0  0  0  0  0  0  0  0  0
   -6.8159   -1.4124    0.0000 C   0  0  0  0  0  0  0  0  0  0  0  0
   -6.4034   -0.6979    0.0000 C   0  0  0  0  0  0  0  0  0  0  0  0
   -5.5784   -0.6979    0.0000 C   0  0  0  0  0  0  0  0  0  0  0  0
   -5.1659   -1.4124    0.0000 C   0  0  0  0  0  0  0  0  0  0  0  0
   -4.3409   -1.4124    0.0000 N   0  0  0  0  0  0  0  0  0  0  0  0
   -3.9284   -0.6979    0.0000 C   0  0  0  0  0  0  0  0  0  0  0  0
   -4.3409    0.0165    0.0000 O   0  0  0  0  0  0  0  0  0  0  0  0
   -3.1034   -0.6979    0.0000 C   0  0  0  0  0  0  0  0  0  0  0  0
   -2.6909    0.0165    0.0000 C   0  0  0  0  0  0  0  0  0  0  0  0
   -1.8659    0.0165    0.0000 C   0  0  0  0  0  0  0  0  0  0  0  0
   -1.4534    0.7310    0.0000 F   0  0  0  0  0  0  0  0  0  0  0  0
   -1.4534   -0.6979    0.0000 C   0  0  0  0  0  0  0  0  0  0  0  0
   -0.6284   -0.6979    0.0000 N   0  0  0  0  0  0  0  0  0  0  0  0
   -0.1435   -1.3654    0.0000 N   0  0  0  0  0  0  0  0  0  0  0  0
    0.6411   -1.1104    0.0000 C   0  0  0  0  0  0  0  0  0  0  0  0
    0.6411   -0.2854    0.0000 N   0  0  0  0  0  0  0  0  0  0  0  0
   -0.1435   -0.0305    0.0000 C   0  0  0  0  0  0  0  0  0  0  0  0
   -0.3984    0.7541    0.0000 O   0  0  0  0  0  0  0  0  0  0  0  0
    1.3556    0.1271    0.0000 C   0  0  0  0  0  0  0  0  0  0  0  0
    2.0701   -0.2854    0.0000 C   0  0  0  0  0  0  0  0  0  0  0  0
    2.0701   -1.1104    0.0000 C   0  0  0  0  0  0  0  0  0  0  0  0
    1.3556   -1.5229    0.0000 C   0  0  0  0  0  0  0  0  0  0  0  0
   -1.8659   -1.4124    0.0000 C   0  0  0  0  0  0  0  0  0  0  0  0
   -2.6909   -1.4124    0.0000 C   0  0  0  0  0  0  0  0  0  0  0  0
   -3.1034   -2.1269    0.0000 O   0  0  0  0  0  0  0  0  0  0  0  0
   -2.6909   -2.8414    0.0000 C   0  0  0  0  0  0  0  0  0  0  0  0
   -1.8659   -2.8414    0.0000 C   0  0  0  0  0  0  0  0  0  0  0  0
   -3.1034   -3.5558    0.0000 C   0  0  0  0  0  0  0  0  0  0  0  0
   -2.6909   -4.2703    0.0000 C   0  0  0  0  0  0  0  0  0  0  0  0
   -3.1034   -4.9848    0.0000 C   0  0  0  0  0  0  0  0  0  0  0  0
   -3.9284   -4.9848    0.0000 C   0  0  0  0  0  0  0  0  0  0  0  0
   -4.3409   -4.2703    0.0000 C   0  0  0  0  0  0  0  0  0  0  0  0
   -3.9284   -3.5558    0.0000 C   0  0  0  0  0  0  0  0  0  0  0  0
  1  2  1  0  0  0  0
  2  3  4  0  0  0  0
  3  4  4  0  0  0  0
  4  5  4  0  0  0  0
  5  6  4  0  0  0  0
  6  7  4  0  0  0  0
  2  7  4  0  0  0  0
  7  8  1  0  0  0  0
  8  9  1  0  0  0  0
  9 10  2  0  0  0  0
  9 11  1  0  0  0  0
 11 12  4  0  0  0  0
 12 13  4  0  0  0  0
 13 14  1  0  0  0  0
 13 15  4  0  0  0  0
 15 16  1  0  0  0  0
 16 17  4  0  0  0  0
 17 18  4  0  0  0  0
 18 19  4  0  0  0  0
 19 20  4  0  0  0  0
 16 20  4  0  0  0  0
 20 21  2  0  0  0  0
 19 22  1  0  0  0  0
 22 23  1  0  0  0  0
 23 24  1  0  0  0  0
 24 25  1  0  0  0  0
 18 25  1  0  0  0  0
 15 26  4  0  0  0  0
 26 27  4  0  0  0  0
 11 27  4  0  0  0  0
 27 28  1  0  0  0  0
 28 29  1  0  0  0  0
 29 30  1  0  0  0  0
 29 31  1  0  0  0  0
 31 32  4  0  0  0  0
 32 33  4  0  0  0  0
 33 34  4  0  0  0  0
 34 35  4  0  0  0  0
 35 36  4  0  0  0  0
 31 36  4  0  0  0  0
M  END
> <IC50(uM)>
0.006500000000000001

> <Outcome>
1.0

> <BindingDB ID>
1020626; 1020625

> <BindingDB MonomerID>
490556

> <BindingDB Ligand Name>
5-fluoro-N-(2-methylphenyl)-4-(3-oxo-5,6,7,8-tetrahydro[1,2,4]triazolo[4,3-a]pyridin-2(3H)-yl)-2-[(1S)-1-phenylethoxy]benzamide::US10968216, Example 224

> <Curation/DataSource>
US Patent

> <Article DOI>
?

> <PMID>
?

> <Patent Number>
US10968216

> <Authors>
Gradl, SN; Nguyen, D; Eis, K; Gunther, J; Stellfeld, T; Janzer, A; Christian, S; Mueller, T; Sheikh, SE; Zhou, HJ; Zhao, C; Sykes, DB; Ferrara, SJ; Liu, K; Herbert, SA; Merz, C; Niehues, M; Nising, CF; Schafer, M; Zimmermann, K; Knablein, J; Thede, K; Faupel, T

> <Link to Ligand in BindingDB>
http://www.bindingdb.org/bind/chemsearch/marvin/MolStructure.jsp?monomerid=490556

> <Link to Ligand-Target Pair in BindingDB>
http://www.bindingdb.org/jsp/dbsearch/PrimarySearch_ki.jsp?energyterm=kJ/mole&tag=r21&monomerid=490556&enzyme=Dihydroorotate+dehydrogenase&column=ki&startPg=0&Increment=50&submit=Search

> <PubChem CID>
134474394

> <PubChem SID>
447117282

$$$$

  Mrv2115 07222212352D          

 26 28  0  0  0  0            999 V2000
   -2.1434   -1.2375    0.0000 C   0  0  0  0  0  0  0  0  0  0  0  0
   -2.8579   -1.6500    0.0000 O   0  0  0  0  0  0  0  0  0  0  0  0
   -2.8579   -2.4750    0.0000 C   0  0  0  0  0  0  0  0  0  0  0  0
   -2.1434   -2.8875    0.0000 C   0  0  0  0  0  0  0  0  0  0  0  0
   -2.1434   -3.7125    0.0000 C   0  0  0  0  0  0  0  0  0  0  0  0
   -2.8579   -4.1250    0.0000 C   0  0  0  0  0  0  0  0  0  0  0  0
   -3.5724   -3.7125    0.0000 C   0  0  0  0  0  0  0  0  0  0  0  0
   -4.2868   -4.1250    0.0000 C   0  0  0  0  0  0  0  0  0  0  0  0
   -5.0013   -3.7125    0.0000 N   0  0  0  0  0  0  0  0  0  0  0  0
   -5.7158   -4.1250    0.0000 C   0  0  0  0  0  0  0  0  0  0  0  0
   -5.7158   -4.9500    0.0000 C   0  0  0  0  0  0  0  0  0  0  0  0
   -6.4302   -5.3625    0.0000 N   0  0  0  0  0  0  0  0  0  0  0  0
   -6.4302   -6.1875    0.0000 C   0  0  0  0  0  0  0  0  0  0  0  0
   -5.7158   -6.6000    0.0000 C   0  0  0  0  0  0  0  0  0  0  0  0
   -5.7158   -7.4250    0.0000 C   0  0  0  0  0  0  0  0  0  0  0  0
   -6.4302   -7.8375    0.0000 C   0  0  0  0  0  0  0  0  0  0  0  0
   -6.4302   -8.6625    0.0000 C   0  0  0  0  0  0  0  0  0  0  0  0
   -7.1447   -7.4250    0.0000 C   0  0  0  0  0  0  0  0  0  0  0  0
   -7.1447   -6.6000    0.0000 C   0  0  0  0  0  0  0  0  0  0  0  0
   -7.8592   -6.1875    0.0000 C   0  0  0  0  0  0  0  0  0  0  0  0
   -7.8592   -5.3625    0.0000 O   0  0  0  0  0  0  0  0  0  0  0  0
   -8.5737   -6.6000    0.0000 O   0  0  0  0  0  0  0  0  0  0  0  0
   -5.0013   -5.3625    0.0000 C   0  0  0  0  0  0  0  0  0  0  0  0
   -4.2868   -4.9500    0.0000 C   0  0  0  0  0  0  0  0  0  0  0  0
   -3.5724   -5.3625    0.0000 C   0  0  0  0  0  0  0  0  0  0  0  0
   -3.5724   -2.8875    0.0000 C   0  0  0  0  0  0  0  0  0  0  0  0
  1  2  1  0  0  0  0
  2  3  1  0  0  0  0
  3  4  4  0  0  0  0
  4  5  4  0  0  0  0
  5  6  4  0  0  0  0
  6  7  4  0  0  0  0
  7  8  1  0  0  0  0
  8  9  4  0  0  0  0
  9 10  4  0  0  0  0
 10 11  4  0  0  0  0
 11 12  1  0  0  0  0
 12 13  1  0  0  0  0
 13 14  4  0  0  0  0
 14 15  4  0  0  0  0
 15 16  4  0  0  0  0
 16 17  1  0  0  0  0
 16 18  4  0  0  0  0
 18 19  4  0  0  0  0
 13 19  4  0  0  0  0
 19 20  1  0  0  0  0
 20 21  2  0  0  0  0
 20 22  1  0  0  0  0
 11 23  4  0  0  0  0
 23 24  4  0  0  0  0
  8 24  4  0  0  0  0
 24 25  1  0  0  0  0
  7 26  4  0  0  0  0
  3 26  4  0  0  0  0
M  END
> <IC50(uM)>
0.021

> <Outcome>
1.0

> <BindingDB ID>
219994

> <BindingDB MonomerID>
102464

> <BindingDB Ligand Name>
US8536165, 51

> <Curation/DataSource>
US Patent

> <Article DOI>
?

> <PMID>
?

> <Patent Number>
US8536165

> <Authors>
Castro Palomino Laria, JC; Terricabras Belart, E; Erra Sola, M; Navarro Romero, E; Fonquerna Pou, S; Cardus Figueras, A; Lozoya Toribio, ME

> <Link to Ligand in BindingDB>
http://www.bindingdb.org/bind/chemsearch/marvin/MolStructure.jsp?monomerid=102464

> <Link to Ligand-Target Pair in BindingDB>
http://www.bindingdb.org/jsp/dbsearch/PrimarySearch_ki.jsp?energyterm=kJ/mole&tag=r21&monomerid=102464&enzyme=Dihydroorotate+dehydrogenase&column=ki&startPg=0&Increment=50&submit=Search

> <PubChem CID>
25187570

> <PubChem SID>
172097755

$$$$

  Mrv2115 07222212352D          

 27 30  0  0  0  0            999 V2000
   -5.1212   -2.1269    0.0000 C   0  0  0  0  0  0  0  0  0  0  0  0
   -4.2962   -2.1269    0.0000 O   0  0  0  0  0  0  0  0  0  0  0  0
   -3.8837   -1.4124    0.0000 C   0  0  0  0  0  0  0  0  0  0  0  0
   -4.2962   -0.6979    0.0000 C   0  0  0  0  0  0  0  0  0  0  0  0
   -3.8837    0.0165    0.0000 C   0  0  0  0  0  0  0  0  0  0  0  0
   -3.0587    0.0165    0.0000 C   0  0  0  0  0  0  0  0  0  0  0  0
   -2.6462   -0.6979    0.0000 C   0  0  0  0  0  0  0  0  0  0  0  0
   -1.8212   -0.6979    0.0000 C   0  0  0  0  0  0  0  0  0  0  0  0
   -1.4087    0.0165    0.0000 C   0  0  0  0  0  0  0  0  0  0  0  0
   -0.5837    0.0165    0.0000 C   0  0  0  0  0  0  0  0  0  0  0  0
   -0.1712   -0.6979    0.0000 C   0  0  0  0  0  0  0  0  0  0  0  0
    0.6538   -0.6979    0.0000 C   0  0  0  0  0  0  0  0  0  0  0  0
    1.1387   -0.0305    0.0000 N   0  0  0  0  0  0  0  0  0  0  0  0
    1.9233   -0.2854    0.0000 C   0  0  0  0  0  0  0  0  0  0  0  0
    2.6378    0.1271    0.0000 C   0  0  0  0  0  0  0  0  0  0  0  0
    2.6378    0.9521    0.0000 C   0  0  0  0  0  0  0  0  0  0  0  0
    1.9233    1.3646    0.0000 O   0  0  0  0  0  0  0  0  0  0  0  0
    3.3523    1.3646    0.0000 O   0  0  0  0  0  0  0  0  0  0  0  0
    3.3523   -0.2854    0.0000 C   0  0  0  0  0  0  0  0  0  0  0  0
    3.3523   -1.1104    0.0000 C   0  0  0  0  0  0  0  0  0  0  0  0
    2.6378   -1.5229    0.0000 C   0  0  0  0  0  0  0  0  0  0  0  0
    1.9233   -1.1104    0.0000 C   0  0  0  0  0  0  0  0  0  0  0  0
    1.1387   -1.3654    0.0000 N   0  0  0  0  0  0  0  0  0  0  0  0
   -0.5837   -1.4124    0.0000 C   0  0  0  0  0  0  0  0  0  0  0  0
   -0.1712   -2.1269    0.0000 F   0  0  0  0  0  0  0  0  0  0  0  0
   -1.4087   -1.4124    0.0000 C   0  0  0  0  0  0  0  0  0  0  0  0
   -3.0587   -1.4124    0.0000 C   0  0  0  0  0  0  0  0  0  0  0  0
  1  2  1  0  0  0  0
  2  3  1  0  0  0  0
  3  4  4  0  0  0  0
  4  5  4  0  0  0  0
  5  6  4  0  0  0  0
  6  7  4  0  0  0  0
  7  8  1  0  0  0  0
  8  9  4  0  0  0  0
  9 10  4  0  0  0  0
 10 11  4  0  0  0  0
 11 12  1  0  0  0  0
 12 13  4  0  0  0  0
 13 14  4  0  0  0  0
 14 15  4  0  0  0  0
 15 16  1  0  0  0  0
 16 17  2  0  0  0  0
 16 18  1  0  0  0  0
 15 19  4  0  0  0  0
 19 20  4  0  0  0  0
 20 21  4  0  0  0  0
 21 22  4  0  0  0  0
 14 22  4  0  0  0  0
 22 23  4  0  0  0  0
 12 23  4  0  0  0  0
 11 24  4  0  0  0  0
 24 25  1  0  0  0  0
 24 26  4  0  0  0  0
  8 26  4  0  0  0  0
  7 27  4  0  0  0  0
  3 27  4  0  0  0  0
M  STY  1   1 DAT
M  SAL   1  1  23
M  SDT   1 MRV_IMPLICIT_H                                        
M  SDD   1     0.5304   -0.4125    DR    ALL  0       0  
M  SED   1 IMPL_H1
M  END
> <IC50(uM)>
0.492

> <Outcome>
1.0

> <BindingDB ID>
297744; 297743

> <BindingDB MonomerID>
155399

> <BindingDB Ligand Name>
US9006454, I3::US9006454, I5

> <Curation/DataSource>
US Patent

> <Article DOI>
?

> <PMID>
?

> <Patent Number>
US9006454

> <Authors>
Thunuguntla, SS; Subramanya, H; Kunnam, SR; Sanivaru Vijay, SR; Bingi, C; Kusanur, R; Schwarz, M; Arlt, M

> <Link to Ligand in BindingDB>
http://www.bindingdb.org/bind/chemsearch/marvin/MolStructure.jsp?monomerid=155399

> <Link to Ligand-Target Pair in BindingDB>
http://www.bindingdb.org/jsp/dbsearch/PrimarySearch_ki.jsp?energyterm=kJ/mole&tag=r21&monomerid=155399&enzyme=Dihydroorotate+dehydrogenase&column=ki&startPg=0&Increment=50&submit=Search

> <PubChem CID>
46945577

> <PubChem SID>
253658337

$$$$

  Mrv2115 07222212352D          

 22 25  0  0  0  0            999 V2000
    4.0668    2.3479    0.0000 C   0  0  0  0  0  0  0  0  0  0  0  0
    3.3523    1.9354    0.0000 C   0  0  0  0  0  0  0  0  0  0  0  0
    3.3523    1.1104    0.0000 C   0  0  0  0  0  0  0  0  0  0  0  0
    2.6378    0.6979    0.0000 C   0  0  0  0  0  0  0  0  0  0  0  0
    2.6378   -0.1271    0.0000 F   0  0  0  0  0  0  0  0  0  0  0  0
    1.9233    1.1104    0.0000 C   0  0  0  0  0  0  0  0  0  0  0  0
    1.9233    1.9354    0.0000 C   0  0  0  0  0  0  0  0  0  0  0  0
    2.6378    2.3479    0.0000 C   0  0  0  0  0  0  0  0  0  0  0  0
    1.1387    2.1904    0.0000 N   0  0  0  0  0  0  0  0  0  0  0  0
    0.6538    1.5229    0.0000 C   0  0  0  0  0  0  0  0  0  0  0  0
    1.1387    0.8555    0.0000 N   0  0  0  0  0  0  0  0  0  0  0  0
    0.8838    0.0709    0.0000 C   0  0  0  0  0  0  0  0  0  0  0  0
    1.3687   -0.5966    0.0000 C   0  0  0  0  0  0  0  0  0  0  0  0
    0.8838   -1.2640    0.0000 C   0  0  0  0  0  0  0  0  0  0  0  0
    0.0992   -1.0091    0.0000 C   0  0  0  0  0  0  0  0  0  0  0  0
   -0.5683   -1.4940    0.0000 C   0  0  0  0  0  0  0  0  0  0  0  0
   -1.3220   -1.1584    0.0000 O   0  0  0  0  0  0  0  0  0  0  0  0
   -0.4820   -2.3145    0.0000 N   0  0  0  0  0  0  0  0  0  0  0  0
   -1.1495   -2.7994    0.0000 C   0  0  0  0  0  0  0  0  0  0  0  0
   -1.4850   -3.5531    0.0000 C   0  0  0  0  0  0  0  0  0  0  0  0
   -1.9700   -2.8856    0.0000 C   0  0  0  0  0  0  0  0  0  0  0  0
    0.0992   -0.1841    0.0000 S   0  0  0  0  0  0  0  0  0  0  0  0
  1  2  1  0  0  0  0
  2  3  4  0  0  0  0
  3  4  4  0  0  0  0
  4  5  1  0  0  0  0
  4  6  4  0  0  0  0
  6  7  4  0  0  0  0
  7  8  4  0  0  0  0
  2  8  4  0  0  0  0
  7  9  4  0  0  0  0
  9 10  4  0  0  0  0
 10 11  4  0  0  0  0
  6 11  4  0  0  0  0
 11 12  1  0  0  0  0
 12 13  4  0  0  0  0
 13 14  4  0  0  0  0
 14 15  4  0  0  0  0
 15 16  1  0  0  0  0
 16 17  2  0  0  0  0
 16 18  1  0  0  0  0
 18 19  1  0  0  0  0
 19 20  1  0  0  0  0
 20 21  1  0  0  0  0
 19 21  1  0  0  0  0
 15 22  4  0  0  0  0
 12 22  4  0  0  0  0
M  END
> <IC50(uM)>
7.3

> <Outcome>
0.0

> <BindingDB ID>
50924672

> <BindingDB MonomerID>
50379153

> <BindingDB Ligand Name>
CHEMBL2012964

> <Curation/DataSource>
ChEMBL

> <Article DOI>
10.1021/ml200143c

> <PMID>
24900364

> <Patent Number>
?

> <Authors>
Skerlj, RT; Bastos, CM; Booker, ML; Kramer, ML; Barker, RH; Celatka, CA; Munoz, B; Sidhu, AB; Cortese, JF; Wittlin, S; Papastogiannidis, P; Angulo-Barturen, I; Jimenez-Diaz, MB; Sybertz, E

> <Link to Ligand in BindingDB>
http://www.bindingdb.org/bind/chemsearch/marvin/MolStructure.jsp?monomerid=50379153

> <Link to Ligand-Target Pair in BindingDB>
http://www.bindingdb.org/jsp/dbsearch/PrimarySearch_ki.jsp?energyterm=kJ/mole&tag=r21&monomerid=50379153&enzyme=Dihydroorotate+dehydrogenase&column=ki&startPg=0&Increment=50&submit=Search

> <PubChem CID>
70681098

> <PubChem SID>
160858236

$$$$

  Mrv2115 07222212352D          

 25 28  0  0  0  0            999 V2000
    4.0668    2.3479    0.0000 C   0  0  0  0  0  0  0  0  0  0  0  0
    3.3523    1.9354    0.0000 C   0  0  0  0  0  0  0  0  0  0  0  0
    3.3523    1.1104    0.0000 C   0  0  0  0  0  0  0  0  0  0  0  0
    2.6378    0.6979    0.0000 C   0  0  0  0  0  0  0  0  0  0  0  0
    2.6378   -0.1271    0.0000 C   0  0  0  0  0  0  0  0  0  0  0  0
    1.9233   -0.5396    0.0000 O   0  0  0  0  0  0  0  0  0  0  0  0
    3.3523   -0.5396    0.0000 O   0  0  0  0  0  0  0  0  0  0  0  0
    1.9233    1.1104    0.0000 C   0  0  0  0  0  0  0  0  0  0  0  0
    1.1387    0.8555    0.0000 N   0  0  0  0  0  0  0  0  0  0  0  0
    0.6538    1.5229    0.0000 C   0  0  0  0  0  0  0  0  0  0  0  0
   -0.1712    1.5229    0.0000 C   0  0  0  0  0  0  0  0  0  0  0  0
   -0.5837    0.8085    0.0000 C   0  0  0  0  0  0  0  0  0  0  0  0
   -1.4087    0.8085    0.0000 C   0  0  0  0  0  0  0  0  0  0  0  0
   -1.8212    1.5229    0.0000 C   0  0  0  0  0  0  0  0  0  0  0  0
   -2.6462    1.5229    0.0000 C   0  0  0  0  0  0  0  0  0  0  0  0
   -3.0587    0.8085    0.0000 C   0  0  0  0  0  0  0  0  0  0  0  0
   -3.8837    0.8085    0.0000 N   0  0  0  0  0  0  0  0  0  0  0  0
   -4.2962    1.5229    0.0000 C   0  0  0  0  0  0  0  0  0  0  0  0
   -3.8837    2.2374    0.0000 C   0  0  0  0  0  0  0  0  0  0  0  0
   -3.0587    2.2374    0.0000 N   0  0  0  0  0  0  0  0  0  0  0  0
   -1.4087    2.2374    0.0000 C   0  0  0  0  0  0  0  0  0  0  0  0
   -0.5837    2.2374    0.0000 C   0  0  0  0  0  0  0  0  0  0  0  0
    1.1387    2.1904    0.0000 N   0  0  0  0  0  0  0  0  0  0  0  0
    1.9233    1.9354    0.0000 C   0  0  0  0  0  0  0  0  0  0  0  0
    2.6378    2.3479    0.0000 C   0  0  0  0  0  0  0  0  0  0  0  0
  1  2  1  0  0  0  0
  2  3  4  0  0  0  0
  3  4  4  0  0  0  0
  4  5  1  0  0  0  0
  5  6  2  0  0  0  0
  5  7  1  0  0  0  0
  4  8  4  0  0  0  0
  8  9  4  0  0  0  0
  9 10  4  0  0  0  0
 10 11  1  0  0  0  0
 11 12  4  0  0  0  0
 12 13  4  0  0  0  0
 13 14  4  0  0  0  0
 14 15  1  0  0  0  0
 15 16  4  0  0  0  0
 16 17  4  0  0  0  0
 17 18  4  0  0  0  0
 18 19  4  0  0  0  0
 19 20  4  0  0  0  0
 15 20  4  0  0  0  0
 14 21  4  0  0  0  0
 21 22  4  0  0  0  0
 11 22  4  0  0  0  0
 10 23  4  0  0  0  0
 23 24  4  0  0  0  0
  8 24  4  0  0  0  0
 24 25  4  0  0  0  0
  2 25  4  0  0  0  0
M  STY  1   1 DAT
M  SAL   1  1  23
M  SDT   1 MRV_IMPLICIT_H                                        
M  SDD   1     0.5304   -0.4125    DR    ALL  0       0  
M  SED   1 IMPL_H1
M  END
> <IC50(uM)>
8.45

> <Outcome>
0.0

> <BindingDB ID>
297849

> <BindingDB MonomerID>
155505

> <BindingDB Ligand Name>
US9006454, I147

> <Curation/DataSource>
US Patent

> <Article DOI>
?

> <PMID>
?

> <Patent Number>
US9006454

> <Authors>
Thunuguntla, SS; Subramanya, H; Kunnam, SR; Sanivaru Vijay, SR; Bingi, C; Kusanur, R; Schwarz, M; Arlt, M

> <Link to Ligand in BindingDB>
http://www.bindingdb.org/bind/chemsearch/marvin/MolStructure.jsp?monomerid=155505

> <Link to Ligand-Target Pair in BindingDB>
http://www.bindingdb.org/jsp/dbsearch/PrimarySearch_ki.jsp?energyterm=kJ/mole&tag=r21&monomerid=155505&enzyme=Dihydroorotate+dehydrogenase&column=ki&startPg=0&Increment=50&submit=Search

> <PubChem CID>
58073803

> <PubChem SID>
253658442

$$$$

  Mrv2115 07222212352D          

 26 29  0  0  0  0            999 V2000
    2.1434   -3.7125    0.0000 C   0  0  0  0  0  0  0  0  0  0  0  0
    2.1434   -2.8875    0.0000 O   0  0  0  0  0  0  0  0  0  0  0  0
    1.4289   -2.4750    0.0000 C   0  0  0  0  0  0  0  0  0  0  0  0
    0.7145   -2.8875    0.0000 O   0  0  0  0  0  0  0  0  0  0  0  0
    1.4289   -1.6500    0.0000 C   0  0  0  0  0  0  0  0  0  0  0  0
    0.7145   -1.2375    0.0000 C   0  0  0  0  0  0  0  0  0  0  0  0
    0.7145   -0.4125    0.0000 C   0  0  0  0  0  0  0  0  0  0  0  0
    0.0000    0.0000    0.0000 C   0  0  0  0  0  0  0  0  0  0  0  0
   -0.7145   -0.4125    0.0000 C   0  0  0  0  0  0  0  0  0  0  0  0
   -1.4289    0.0000    0.0000 C   0  0  0  0  0  0  0  0  0  0  0  0
   -1.4289    0.8250    0.0000 C   0  0  0  0  0  0  0  0  0  0  0  0
   -2.1434    1.2375    0.0000 C   0  0  0  0  0  0  0  0  0  0  0  0
   -2.8579    0.8250    0.0000 C   0  0  0  0  0  0  0  0  0  0  0  0
   -3.5724    1.2375    0.0000 C   0  0  0  0  0  0  0  0  0  0  0  0
   -3.5724    2.0625    0.0000 C   0  0  0  0  0  0  0  0  0  0  0  0
   -2.8579    2.4750    0.0000 N   0  0  0  0  0  0  0  0  0  0  0  0
   -2.1434    2.0625    0.0000 C   0  0  0  0  0  0  0  0  0  0  0  0
   -0.7145    1.2375    0.0000 C   0  0  0  0  0  0  0  0  0  0  0  0
    0.0000    0.8250    0.0000 C   0  0  0  0  0  0  0  0  0  0  0  0
    1.4289    0.0000    0.0000 N   0  0  0  0  0  0  0  0  0  0  0  0
    2.1434   -0.4125    0.0000 C   0  0  0  0  0  0  0  0  0  0  0  0
    2.8579    0.0000    0.0000 C   0  0  0  0  0  0  0  0  0  0  0  0
    3.5724   -0.4125    0.0000 C   0  0  0  0  0  0  0  0  0  0  0  0
    3.5724   -1.2375    0.0000 C   0  0  0  0  0  0  0  0  0  0  0  0
    2.8579   -1.6500    0.0000 C   0  0  0  0  0  0  0  0  0  0  0  0
    2.1434   -1.2375    0.0000 C   0  0  0  0  0  0  0  0  0  0  0  0
  1  2  1  0  0  0  0
  2  3  1  0  0  0  0
  3  4  2  0  0  0  0
  3  5  1  0  0  0  0
  5  6  4  0  0  0  0
  6  7  4  0  0  0  0
  7  8  1  0  0  0  0
  8  9  4  0  0  0  0
  9 10  4  0  0  0  0
 10 11  4  0  0  0  0
 11 12  1  0  0  0  0
 12 13  4  0  0  0  0
 13 14  4  0  0  0  0
 14 15  4  0  0  0  0
 15 16  4  0  0  0  0
 16 17  4  0  0  0  0
 12 17  4  0  0  0  0
 11 18  4  0  0  0  0
 18 19  4  0  0  0  0
  8 19  4  0  0  0  0
  7 20  4  0  0  0  0
 20 21  4  0  0  0  0
 21 22  4  0  0  0  0
 22 23  4  0  0  0  0
 23 24  4  0  0  0  0
 24 25  4  0  0  0  0
 25 26  4  0  0  0  0
  5 26  4  0  0  0  0
 21 26  4  0  0  0  0
M  END
> <IC50(uM)>
200.0

> <Outcome>
0.0

> <BindingDB ID>
51126179

> <BindingDB MonomerID>
50461866

> <BindingDB Ligand Name>
CHEMBL4228737

> <Curation/DataSource>
ChEMBL

> <Article DOI>
10.1021/acs.jmedchem.7b01862

> <PMID>
29727569

> <Patent Number>
?

> <Authors>
Madak, JT; Cuthbertson, CR; Miyata, Y; Tamura, S; Petrunak, EM; Stuckey, JA; Han, Y; He, M; Sun, D; Showalter, HD; Neamati, N

> <Link to Ligand in BindingDB>
http://www.bindingdb.org/bind/chemsearch/marvin/MolStructure.jsp?monomerid=50461866

> <Link to Ligand-Target Pair in BindingDB>
http://www.bindingdb.org/jsp/dbsearch/PrimarySearch_ki.jsp?energyterm=kJ/mole&tag=r21&monomerid=50461866&enzyme=Dihydroorotate+dehydrogenase&column=ki&startPg=0&Increment=50&submit=Search

> <PubChem CID>
145969586

> <PubChem SID>
433929131

$$$$

  Mrv2115 07222212352D          

 28 31  0  0  0  0            999 V2000
    0.0000   -1.6500    0.0000 C   0  0  0  0  0  0  0  0  0  0  0  0
    0.7145   -1.2375    0.0000 C   0  0  0  0  0  0  0  0  0  0  0  0
    0.7145   -0.4125    0.0000 C   0  0  0  0  0  0  0  0  0  0  0  0
    0.0000    0.0000    0.0000 C   0  0  0  0  0  0  0  0  0  0  0  0
   -0.7145   -0.4125    0.0000 C   0  0  0  0  0  0  0  0  0  0  0  0
   -1.4289    0.0000    0.0000 C   0  0  0  0  0  0  0  0  0  0  0  0
   -1.4289    0.8250    0.0000 C   0  0  0  0  0  0  0  0  0  0  0  0
   -2.1434    1.2375    0.0000 C   0  0  0  0  0  0  0  0  0  0  0  0
   -2.8579    0.8250    0.0000 C   0  0  0  0  0  0  0  0  0  0  0  0
   -3.5724    1.2375    0.0000 C   0  0  0  0  0  0  0  0  0  0  0  0
   -3.5724    2.0625    0.0000 C   0  0  0  0  0  0  0  0  0  0  0  0
   -2.8579    2.4750    0.0000 N   0  0  0  0  0  0  0  0  0  0  0  0
   -2.1434    2.0625    0.0000 C   0  0  0  0  0  0  0  0  0  0  0  0
   -1.4289    2.4750    0.0000 Cl  0  0  0  0  0  0  0  0  0  0  0  0
   -0.7145    1.2375    0.0000 C   0  0  0  0  0  0  0  0  0  0  0  0
    0.0000    0.8250    0.0000 C   0  0  0  0  0  0  0  0  0  0  0  0
    1.4289    0.0000    0.0000 N   0  0  0  0  0  0  0  0  0  0  0  0
    2.1434   -0.4125    0.0000 C   0  0  0  0  0  0  0  0  0  0  0  0
    2.8579    0.0000    0.0000 C   0  0  0  0  0  0  0  0  0  0  0  0
    3.5724   -0.4125    0.0000 C   0  0  0  0  0  0  0  0  0  0  0  0
    3.5724   -1.2375    0.0000 C   0  0  0  0  0  0  0  0  0  0  0  0
    4.2868   -1.6500    0.0000 Cl  0  0  0  0  0  0  0  0  0  0  0  0
    2.8579   -1.6500    0.0000 C   0  0  0  0  0  0  0  0  0  0  0  0
    2.1434   -1.2375    0.0000 C   0  0  0  0  0  0  0  0  0  0  0  0
    1.4289   -1.6500    0.0000 C   0  0  0  0  0  0  0  0  0  0  0  0
    1.4289   -2.4750    0.0000 C   0  0  0  0  0  0  0  0  0  0  0  0
    0.7145   -2.8875    0.0000 O   0  0  0  0  0  0  0  0  0  0  0  0
    2.1434   -2.8875    0.0000 O   0  0  0  0  0  0  0  0  0  0  0  0
  1  2  1  0  0  0  0
  2  3  4  0  0  0  0
  3  4  1  0  0  0  0
  4  5  4  0  0  0  0
  5  6  4  0  0  0  0
  6  7  4  0  0  0  0
  7  8  1  0  0  0  0
  8  9  4  0  0  0  0
  9 10  4  0  0  0  0
 10 11  4  0  0  0  0
 11 12  4  0  0  0  0
 12 13  4  0  0  0  0
  8 13  4  0  0  0  0
 13 14  1  0  0  0  0
  7 15  4  0  0  0  0
 15 16  4  0  0  0  0
  4 16  4  0  0  0  0
  3 17  4  0  0  0  0
 17 18  4  0  0  0  0
 18 19  4  0  0  0  0
 19 20  4  0  0  0  0
 20 21  4  0  0  0  0
 21 22  1  0  0  0  0
 21 23  4  0  0  0  0
 23 24  4  0  0  0  0
 18 24  4  0  0  0  0
 24 25  4  0  0  0  0
  2 25  4  0  0  0  0
 25 26  1  0  0  0  0
 26 27  2  0  0  0  0
 26 28  1  0  0  0  0
M  END
> <IC50(uM)>
0.036

> <Outcome>
1.0

> <BindingDB ID>
51126193

> <BindingDB MonomerID>
50461879

> <BindingDB Ligand Name>
CHEMBL4224944

> <Curation/DataSource>
ChEMBL

> <Article DOI>
10.1021/acs.jmedchem.7b01862

> <PMID>
29727569

> <Patent Number>
?

> <Authors>
Madak, JT; Cuthbertson, CR; Miyata, Y; Tamura, S; Petrunak, EM; Stuckey, JA; Han, Y; He, M; Sun, D; Showalter, HD; Neamati, N

> <Link to Ligand in BindingDB>
http://www.bindingdb.org/bind/chemsearch/marvin/MolStructure.jsp?monomerid=50461879

> <Link to Ligand-Target Pair in BindingDB>
http://www.bindingdb.org/jsp/dbsearch/PrimarySearch_ki.jsp?energyterm=kJ/mole&tag=r21&monomerid=50461879&enzyme=Dihydroorotate+dehydrogenase&column=ki&startPg=0&Increment=50&submit=Search

> <PubChem CID>
145967579

> <PubChem SID>
433929144

$$$$

  Mrv2115 07222212352D          

 33 36  0  0  0  0            999 V2000
   -0.7145    1.2375    0.0000 C   0  0  0  0  0  0  0  0  0  0  0  0
    0.0000    0.8250    0.0000 C   0  0  0  0  0  0  0  0  0  0  0  0
    0.0000   -0.0000    0.0000 O   0  0  0  0  0  0  0  0  0  0  0  0
    0.7145   -0.4125    0.0000 C   0  0  0  0  0  0  0  0  0  0  0  0
    1.4289   -0.0000    0.0000 O   0  0  0  0  0  0  0  0  0  0  0  0
    0.7145   -1.2375    0.0000 C   0  0  0  0  0  0  0  0  0  0  0  0
    1.3819   -1.7224    0.0000 S   0  0  0  0  0  0  0  0  0  0  0  0
    1.1270   -2.5070    0.0000 C   0  0  0  0  0  0  0  0  0  0  0  0
    1.6119   -3.1745    0.0000 N   0  0  0  0  0  0  0  0  0  0  0  0
    1.2763   -3.9282    0.0000 C   0  0  0  0  0  0  0  0  0  0  0  0
    1.7613   -4.5956    0.0000 C   0  0  0  0  0  0  0  0  0  0  0  0
    2.5817   -4.5094    0.0000 F   0  0  0  0  0  0  0  0  0  0  0  0
    1.4257   -5.3493    0.0000 C   0  0  0  0  0  0  0  0  0  0  0  0
    0.6052   -5.4355    0.0000 C   0  0  0  0  0  0  0  0  0  0  0  0
    0.2697   -6.1892    0.0000 C   0  0  0  0  0  0  0  0  0  0  0  0
    0.7546   -6.8566    0.0000 C   0  0  0  0  0  0  0  0  0  0  0  0
    0.4190   -7.6103    0.0000 C   0  0  0  0  0  0  0  0  0  0  0  0
   -0.4015   -7.6965    0.0000 C   0  0  0  0  0  0  0  0  0  0  0  0
   -0.8864   -7.0291    0.0000 C   0  0  0  0  0  0  0  0  0  0  0  0
   -1.7069   -7.1153    0.0000 O   0  0  0  0  0  0  0  0  0  0  0  0
   -2.0424   -7.8690    0.0000 C   0  0  0  0  0  0  0  0  0  0  0  0
   -0.5508   -6.2754    0.0000 C   0  0  0  0  0  0  0  0  0  0  0  0
    0.1203   -4.7681    0.0000 C   0  0  0  0  0  0  0  0  0  0  0  0
    0.4559   -4.0144    0.0000 C   0  0  0  0  0  0  0  0  0  0  0  0
   -0.0291   -3.3470    0.0000 F   0  0  0  0  0  0  0  0  0  0  0  0
    0.3020   -2.5070    0.0000 N   0  0  0  0  0  0  0  0  0  0  0  0
    0.0470   -1.7224    0.0000 C   0  0  0  0  0  0  0  0  0  0  0  0
   -0.7376   -1.4675    0.0000 C   0  0  0  0  0  0  0  0  0  0  0  0
   -1.3507   -2.0195    0.0000 C   0  0  0  0  0  0  0  0  0  0  0  0
   -2.1353   -1.7646    0.0000 C   0  0  0  0  0  0  0  0  0  0  0  0
   -2.3068   -0.9576    0.0000 C   0  0  0  0  0  0  0  0  0  0  0  0
   -1.6937   -0.4056    0.0000 C   0  0  0  0  0  0  0  0  0  0  0  0
   -0.9091   -0.6605    0.0000 C   0  0  0  0  0  0  0  0  0  0  0  0
  1  2  1  0  0  0  0
  2  3  1  0  0  0  0
  3  4  1  0  0  0  0
  4  5  2  0  0  0  0
  4  6  1  0  0  0  0
  6  7  4  0  0  0  0
  7  8  4  0  0  0  0
  8  9  1  0  0  0  0
  9 10  1  0  0  0  0
 10 11  4  0  0  0  0
 11 12  1  0  0  0  0
 11 13  4  0  0  0  0
 13 14  4  0  0  0  0
 14 15  1  0  0  0  0
 15 16  4  0  0  0  0
 16 17  4  0  0  0  0
 17 18  4  0  0  0  0
 18 19  4  0  0  0  0
 19 20  1  0  0  0  0
 20 21  1  0  0  0  0
 19 22  4  0  0  0  0
 15 22  4  0  0  0  0
 14 23  4  0  0  0  0
 23 24  4  0  0  0  0
 10 24  4  0  0  0  0
 24 25  1  0  0  0  0
  8 26  4  0  0  0  0
 26 27  4  0  0  0  0
  6 27  4  0  0  0  0
 27 28  1  0  0  0  0
 28 29  4  0  0  0  0
 29 30  4  0  0  0  0
 30 31  4  0  0  0  0
 31 32  4  0  0  0  0
 32 33  4  0  0  0  0
 28 33  4  0  0  0  0
M  END
> <IC50(uM)>
0.311

> <Outcome>
1.0

> <BindingDB ID>
50312496

> <BindingDB MonomerID>
50071803

> <BindingDB Ligand Name>
CHEMBL3410616

> <Curation/DataSource>
ChEMBL

> <Article DOI>
10.1021/jm501127s

> <PMID>
25580811

> <Patent Number>
?

> <Authors>
Zhu, J; Han, L; Diao, Y; Ren, X; Xu, M; Xu, L; Li, S; Li, Q; Dong, D; Huang, J; Liu, X; Zhao, Z; Wang, R; Zhu, L; Xu, Y; Qian, X; Li, H

> <Link to Ligand in BindingDB>
http://www.bindingdb.org/bind/chemsearch/marvin/MolStructure.jsp?monomerid=50071803

> <Link to Ligand-Target Pair in BindingDB>
http://www.bindingdb.org/jsp/dbsearch/PrimarySearch_ki.jsp?energyterm=kJ/mole&tag=r21&monomerid=50071803&enzyme=Dihydroorotate+dehydrogenase&column=ki&startPg=0&Increment=50&submit=Search

> <PubChem CID>
118732524

> <PubChem SID>
103965513

$$$$

  Mrv2115 07222212352D          

 20 22  0  0  0  0            999 V2000
   -3.8837   -2.8414    0.0000 C   0  0  0  0  0  0  0  0  0  0  0  0
   -3.0587   -2.8414    0.0000 O   0  0  0  0  0  0  0  0  0  0  0  0
   -2.6462   -2.1269    0.0000 C   0  0  0  0  0  0  0  0  0  0  0  0
   -3.0587   -1.4124    0.0000 C   0  0  0  0  0  0  0  0  0  0  0  0
   -2.6462   -0.6979    0.0000 C   0  0  0  0  0  0  0  0  0  0  0  0
   -1.8212   -0.6979    0.0000 C   0  0  0  0  0  0  0  0  0  0  0  0
   -1.4087   -1.4124    0.0000 C   0  0  0  0  0  0  0  0  0  0  0  0
   -0.5837   -1.4124    0.0000 C   0  0  0  0  0  0  0  0  0  0  0  0
   -0.1712   -2.1269    0.0000 O   0  0  0  0  0  0  0  0  0  0  0  0
   -0.1712   -0.6979    0.0000 N   0  0  0  0  0  0  0  0  0  0  0  0
    0.6538   -0.6979    0.0000 C   0  0  0  0  0  0  0  0  0  0  0  0
    1.1387   -0.0305    0.0000 N   0  0  0  0  0  0  0  0  0  0  0  0
    1.9233   -0.2854    0.0000 C   0  0  0  0  0  0  0  0  0  0  0  0
    2.6378    0.1271    0.0000 C   0  0  0  0  0  0  0  0  0  0  0  0
    3.3523   -0.2854    0.0000 C   0  0  0  0  0  0  0  0  0  0  0  0
    3.3523   -1.1104    0.0000 C   0  0  0  0  0  0  0  0  0  0  0  0
    2.6378   -1.5229    0.0000 C   0  0  0  0  0  0  0  0  0  0  0  0
    1.9233   -1.1104    0.0000 C   0  0  0  0  0  0  0  0  0  0  0  0
    1.1387   -1.3654    0.0000 S   0  0  0  0  0  0  0  0  0  0  0  0
   -1.8212   -2.1269    0.0000 C   0  0  0  0  0  0  0  0  0  0  0  0
  1  2  1  0  0  0  0
  2  3  1  0  0  0  0
  3  4  4  0  0  0  0
  4  5  4  0  0  0  0
  5  6  4  0  0  0  0
  6  7  4  0  0  0  0
  7  8  1  0  0  0  0
  8  9  2  0  0  0  0
  8 10  1  0  0  0  0
 10 11  1  0  0  0  0
 11 12  4  0  0  0  0
 12 13  4  0  0  0  0
 13 14  4  0  0  0  0
 14 15  4  0  0  0  0
 15 16  4  0  0  0  0
 16 17  4  0  0  0  0
 17 18  4  0  0  0  0
 13 18  4  0  0  0  0
 18 19  4  0  0  0  0
 11 19  4  0  0  0  0
  7 20  4  0  0  0  0
  3 20  4  0  0  0  0
M  END
> <IC50(uM)>
6.83

> <Outcome>
0.0

> <BindingDB ID>
50971933

> <BindingDB MonomerID>
69647

> <BindingDB Ligand Name>
MLS001211237::N-(1,3-benzothiazol-2-yl)-3-methoxy-benzamide::N-(1,3-benzothiazol-2-yl)-3-methoxybenzamide::N-Benzothiazol-2-yl-3-methoxy-benzamide::SMR000517566::cid_669445

> <Curation/DataSource>
ChEMBL

> <Article DOI>
10.1021/jm300630p

> <PMID>
22984987

> <Patent Number>
?

> <Authors>
Diao, Y; Lu, W; Jin, H; Zhu, J; Han, L; Xu, M; Gao, R; Shen, X; Zhao, Z; Liu, X; Xu, Y; Huang, J; Li, H

> <Link to Ligand in BindingDB>
http://www.bindingdb.org/bind/chemsearch/marvin/MolStructure.jsp?monomerid=69647

> <Link to Ligand-Target Pair in BindingDB>
http://www.bindingdb.org/jsp/dbsearch/PrimarySearch_ki.jsp?energyterm=kJ/mole&tag=r21&monomerid=69647&enzyme=Dihydroorotate+dehydrogenase&column=ki&startPg=0&Increment=50&submit=Search

> <PubChem CID>
669445

> <PubChem SID>
252647812

$$$$

  Mrv2115 07222212352D          

 23 25  0  0  0  0            999 V2000
    0.7145   -2.8875    0.0000 C   0  0  0  0  0  0  0  0  0  0  0  0
    1.4289   -2.4750    0.0000 O   0  0  0  0  0  0  0  0  0  0  0  0
    1.4289   -1.6500    0.0000 C   0  0  0  0  0  0  0  0  0  0  0  0
    0.7145   -1.2375    0.0000 C   0  0  0  0  0  0  0  0  0  0  0  0
    0.7145   -0.4125    0.0000 C   0  0  0  0  0  0  0  0  0  0  0  0
    1.4289    0.0000    0.0000 C   0  0  0  0  0  0  0  0  0  0  0  0
    2.1434   -0.4125    0.0000 C   0  0  0  0  0  0  0  0  0  0  0  0
    2.8579    0.0000    0.0000 C   0  0  0  0  0  0  0  0  0  0  0  0
    2.8579    0.8250    0.0000 C   0  0  0  0  0  0  0  0  0  0  0  0
    3.5724    1.2375    0.0000 O   0  0  0  0  0  0  0  0  0  0  0  0
    2.1434    1.2375    0.0000 O   0  0  0  0  0  0  0  0  0  0  0  0
    3.5724   -0.4125    0.0000 C   0  0  0  0  0  0  0  0  0  0  0  0
    4.2868   -0.0000    0.0000 O   0  0  0  0  0  0  0  0  0  0  0  0
    3.5724   -1.2375    0.0000 C   0  0  0  0  0  0  0  0  0  0  0  0
    4.2868   -1.6500    0.0000 C   0  0  0  0  0  0  0  0  0  0  0  0
    5.0013   -1.2375    0.0000 C   0  0  0  0  0  0  0  0  0  0  0  0
    5.7158   -1.6500    0.0000 C   0  0  0  0  0  0  0  0  0  0  0  0
    5.7158   -2.4750    0.0000 C   0  0  0  0  0  0  0  0  0  0  0  0
    6.4302   -2.8875    0.0000 Cl  0  0  0  0  0  0  0  0  0  0  0  0
    5.0013   -2.8875    0.0000 C   0  0  0  0  0  0  0  0  0  0  0  0
    4.2868   -2.4750    0.0000 C   0  0  0  0  0  0  0  0  0  0  0  0
    2.8579   -1.6500    0.0000 N   0  0  0  0  0  0  0  0  0  0  0  0
    2.1434   -1.2375    0.0000 C   0  0  0  0  0  0  0  0  0  0  0  0
  1  2  1  0  0  0  0
  2  3  1  0  0  0  0
  3  4  4  0  0  0  0
  4  5  4  0  0  0  0
  5  6  4  0  0  0  0
  6  7  4  0  0  0  0
  7  8  4  0  0  0  0
  8  9  1  0  0  0  0
  9 10  2  0  0  0  0
  9 11  1  0  0  0  0
  8 12  4  0  0  0  0
 12 13  1  0  0  0  0
 12 14  4  0  0  0  0
 14 15  1  0  0  0  0
 15 16  4  0  0  0  0
 16 17  4  0  0  0  0
 17 18  4  0  0  0  0
 18 19  1  0  0  0  0
 18 20  4  0  0  0  0
 20 21  4  0  0  0  0
 15 21  4  0  0  0  0
 14 22  4  0  0  0  0
 22 23  4  0  0  0  0
  3 23  4  0  0  0  0
  7 23  4  0  0  0  0
M  END
> <IC50(uM)>
306.0

> <Outcome>
0.0

> <BindingDB ID>
50841932

> <BindingDB MonomerID>
50201948

> <BindingDB Ligand Name>
2-(4-chlorophenyl)-3-hydroxy-8-methoxyquinoline-4-carboxylicacid::CHEMBL385893

> <Curation/DataSource>
ChEMBL

> <Article DOI>
10.1021/jm0602256

> <PMID>
17201408

> <Patent Number>
?

> <Authors>
Kaila, N; Janz, K; DeBernardo, S; Bedard, PW; Camphausen, RT; Tam, S; Tsao, DH; Keith, JC; Nickerson-Nutter, C; Shilling, A; Young-Sciame, R; Wang, Q

> <Link to Ligand in BindingDB>
http://www.bindingdb.org/bind/chemsearch/marvin/MolStructure.jsp?monomerid=50201948

> <Link to Ligand-Target Pair in BindingDB>
http://www.bindingdb.org/jsp/dbsearch/PrimarySearch_ki.jsp?energyterm=kJ/mole&tag=r21&monomerid=50201948&enzyme=Dihydroorotate+dehydrogenase&column=ki&startPg=0&Increment=50&submit=Search

> <PubChem CID>
16099894

> <PubChem SID>
104081599

$$$$

  Mrv2115 07222212352D          

 36 39  0  0  0  0            999 V2000
   -1.8659    1.4455    0.0000 C   0  0  0  0  0  0  0  0  0  0  0  0
   -2.6909    1.4455    0.0000 C   0  0  0  0  0  0  0  0  0  0  0  0
   -3.1034    0.7310    0.0000 O   0  0  0  0  0  0  0  0  0  0  0  0
   -2.6909    0.0165    0.0000 C   0  0  0  0  0  0  0  0  0  0  0  0
   -1.8659    0.0165    0.0000 C   0  0  0  0  0  0  0  0  0  0  0  0
   -1.4534   -0.6979    0.0000 C   0  0  0  0  0  0  0  0  0  0  0  0
   -0.6284   -0.6979    0.0000 N   0  0  0  0  0  0  0  0  0  0  0  0
   -0.1435   -1.3654    0.0000 N   0  0  0  0  0  0  0  0  0  0  0  0
    0.6411   -1.1104    0.0000 C   0  0  0  0  0  0  0  0  0  0  0  0
    0.6411   -0.2854    0.0000 N   0  0  0  0  0  0  0  0  0  0  0  0
   -0.1435   -0.0305    0.0000 C   0  0  0  0  0  0  0  0  0  0  0  0
   -0.3984    0.7541    0.0000 O   0  0  0  0  0  0  0  0  0  0  0  0
    1.3556    0.1271    0.0000 C   0  0  0  0  0  0  0  0  0  0  0  0
    2.0701   -0.2854    0.0000 C   0  0  0  0  0  0  0  0  0  0  0  0
    2.0701   -1.1104    0.0000 O   0  0  0  0  0  0  0  0  0  0  0  0
    1.3556   -1.5229    0.0000 C   0  0  0  0  0  0  0  0  0  0  0  0
   -1.8659   -1.4124    0.0000 C   0  0  0  0  0  0  0  0  0  0  0  0
   -1.4534   -2.1269    0.0000 F   0  0  0  0  0  0  0  0  0  0  0  0
   -2.6909   -1.4124    0.0000 C   0  0  0  0  0  0  0  0  0  0  0  0
   -3.1034   -0.6979    0.0000 C   0  0  0  0  0  0  0  0  0  0  0  0
   -3.9284   -0.6979    0.0000 C   0  0  0  0  0  0  0  0  0  0  0  0
   -4.3409    0.0165    0.0000 O   0  0  0  0  0  0  0  0  0  0  0  0
   -4.3409   -1.4124    0.0000 N   0  0  0  0  0  0  0  0  0  0  0  0
   -5.1659   -1.4124    0.0000 C   0  0  0  0  0  0  0  0  0  0  0  0
   -5.5784   -0.6979    0.0000 C   0  0  0  0  0  0  0  0  0  0  0  0
   -6.4034   -0.6979    0.0000 C   0  0  0  0  0  0  0  0  0  0  0  0
   -6.8159   -1.4124    0.0000 C   0  0  0  0  0  0  0  0  0  0  0  0
   -6.4034   -2.1269    0.0000 C   0  0  0  0  0  0  0  0  0  0  0  0
   -5.5784   -2.1269    0.0000 C   0  0  0  0  0  0  0  0  0  0  0  0
   -5.1659   -2.8414    0.0000 C   0  0  0  0  0  0  0  0  0  0  0  0
   -5.5784   -3.5558    0.0000 F   0  0  0  0  0  0  0  0  0  0  0  0
   -4.3409   -2.8414    0.0000 F   0  0  0  0  0  0  0  0  0  0  0  0
   -3.1034    2.1599    0.0000 C   0  0  0  0  0  0  0  0  0  0  0  0
   -2.3890    2.5724    0.0000 F   0  0  0  0  0  0  0  0  0  0  0  0
   -3.8179    1.7474    0.0000 F   0  0  0  0  0  0  0  0  0  0  0  0
   -3.5159    2.8744    0.0000 F   0  0  0  0  0  0  0  0  0  0  0  0
  1  2  1  0  0  0  0
  2  3  1  0  0  0  0
  3  4  1  0  0  0  0
  4  5  4  0  0  0  0
  5  6  4  0  0  0  0
  6  7  1  0  0  0  0
  7  8  4  0  0  0  0
  8  9  4  0  0  0  0
  9 10  4  0  0  0  0
 10 11  4  0  0  0  0
  7 11  4  0  0  0  0
 11 12  2  0  0  0  0
 10 13  1  0  0  0  0
 13 14  1  0  0  0  0
 14 15  1  0  0  0  0
 15 16  1  0  0  0  0
  9 16  1  0  0  0  0
  6 17  4  0  0  0  0
 17 18  1  0  0  0  0
 17 19  4  0  0  0  0
 19 20  4  0  0  0  0
  4 20  4  0  0  0  0
 20 21  1  0  0  0  0
 21 22  2  0  0  0  0
 21 23  1  0  0  0  0
 23 24  1  0  0  0  0
 24 25  4  0  0  0  0
 25 26  4  0  0  0  0
 26 27  4  0  0  0  0
 27 28  4  0  0  0  0
 28 29  4  0  0  0  0
 24 29  4  0  0  0  0
 29 30  1  0  0  0  0
 30 31  1  0  0  0  0
 30 32  1  0  0  0  0
  2 33  1  0  0  0  0
 33 34  1  0  0  0  0
 33 35  1  0  0  0  0
 33 36  1  0  0  0  0
M  END
> <IC50(uM)>
0.06

> <Outcome>
1.0

> <BindingDB ID>
1020586

> <BindingDB MonomerID>
490525

> <BindingDB Ligand Name>
N-[2-(difluoromethyl)phenyl]-5-fluoro-4-(3-oxo-5,6-dihydro-3H-[1,2,4]triazolo[3,4-c][1,4]oxazin-2(8H)-yl)-2-{[(2S)-1,1,1-trifluoropropan-2-yl]oxy}benzamide::US10968216, Example 193

> <Curation/DataSource>
US Patent

> <Article DOI>
?

> <PMID>
?

> <Patent Number>
US10968216

> <Authors>
Gradl, SN; Nguyen, D; Eis, K; Gunther, J; Stellfeld, T; Janzer, A; Christian, S; Mueller, T; Sheikh, SE; Zhou, HJ; Zhao, C; Sykes, DB; Ferrara, SJ; Liu, K; Herbert, SA; Merz, C; Niehues, M; Nising, CF; Schafer, M; Zimmermann, K; Knablein, J; Thede, K; Faupel, T

> <Link to Ligand in BindingDB>
http://www.bindingdb.org/bind/chemsearch/marvin/MolStructure.jsp?monomerid=490525

> <Link to Ligand-Target Pair in BindingDB>
http://www.bindingdb.org/jsp/dbsearch/PrimarySearch_ki.jsp?energyterm=kJ/mole&tag=r21&monomerid=490525&enzyme=Dihydroorotate+dehydrogenase&column=ki&startPg=0&Increment=50&submit=Search

> <PubChem CID>
134474416

> <PubChem SID>
447117251

$$$$

  Mrv2115 07222212352D          

 23 25  0  0  0  0            999 V2000
   -0.5837    0.0165    0.0000 C   0  0  0  0  0  0  0  0  0  0  0  0
   -0.1712   -0.6979    0.0000 C   0  0  0  0  0  0  0  0  0  0  0  0
    0.6538   -0.6979    0.0000 C   0  0  0  0  0  0  0  0  0  0  0  0
    1.1387   -0.0305    0.0000 N   0  0  0  0  0  0  0  0  0  0  0  0
    1.9233   -0.2854    0.0000 C   0  0  0  0  0  0  0  0  0  0  0  0
    2.6378    0.1271    0.0000 N   0  0  0  0  0  0  0  0  0  0  0  0
    3.3523   -0.2854    0.0000 C   0  0  0  0  0  0  0  0  0  0  0  0
    4.0668    0.1271    0.0000 C   0  0  0  0  0  0  0  0  0  0  0  0
    3.3523   -1.1104    0.0000 C   0  0  0  0  0  0  0  0  0  0  0  0
    2.6378   -1.5229    0.0000 C   0  0  0  0  0  0  0  0  0  0  0  0
    2.6378   -2.3479    0.0000 N   0  0  0  0  0  0  0  0  0  0  0  0
    1.9233   -2.7604    0.0000 C   0  0  0  0  0  0  0  0  0  0  0  0
    1.9233   -3.5854    0.0000 C   0  0  0  0  0  0  0  0  0  0  0  0
    1.2089   -3.9979    0.0000 C   0  0  0  0  0  0  0  0  0  0  0  0
    0.4944   -3.5854    0.0000 C   0  0  0  0  0  0  0  0  0  0  0  0
   -0.2201   -3.9979    0.0000 C   0  0  0  0  0  0  0  0  0  0  0  0
   -0.9345   -4.4104    0.0000 F   0  0  0  0  0  0  0  0  0  0  0  0
   -0.6326   -3.2835    0.0000 F   0  0  0  0  0  0  0  0  0  0  0  0
    0.1924   -4.7124    0.0000 F   0  0  0  0  0  0  0  0  0  0  0  0
    0.4944   -2.7604    0.0000 C   0  0  0  0  0  0  0  0  0  0  0  0
    1.2089   -2.3479    0.0000 C   0  0  0  0  0  0  0  0  0  0  0  0
    1.9233   -1.1104    0.0000 N   0  0  0  0  0  0  0  0  0  0  0  0
    1.1387   -1.3654    0.0000 N   0  0  0  0  0  0  0  0  0  0  0  0
  1  2  1  0  0  0  0
  2  3  1  0  0  0  0
  3  4  4  0  0  0  0
  4  5  4  0  0  0  0
  5  6  4  0  0  0  0
  6  7  4  0  0  0  0
  7  8  1  0  0  0  0
  7  9  4  0  0  0  0
  9 10  4  0  0  0  0
 10 11  1  0  0  0  0
 11 12  1  0  0  0  0
 12 13  4  0  0  0  0
 13 14  4  0  0  0  0
 14 15  4  0  0  0  0
 15 16  1  0  0  0  0
 16 17  1  0  0  0  0
 16 18  1  0  0  0  0
 16 19  1  0  0  0  0
 15 20  4  0  0  0  0
 20 21  4  0  0  0  0
 12 21  4  0  0  0  0
 10 22  4  0  0  0  0
  5 22  4  0  0  0  0
 22 23  4  0  0  0  0
  3 23  4  0  0  0  0
M  END
> <IC50(uM)>
100.0

> <Outcome>
0.0

> <BindingDB ID>
50720174

> <BindingDB MonomerID>
50365244

> <BindingDB Ligand Name>
CHEMBL1956264

> <Curation/DataSource>
ChEMBL

> <Article DOI>
10.1021/jm200592f

> <PMID>
21696174

> <Patent Number>
?

> <Authors>
Coteron, JM; Marco, M; Esquivias, J; Deng, X; White, KL; White, J; Koltun, M; El Mazouni, F; Kokkonda, S; Katneni, K; Bhamidipati, R; Shackleford, DM; Angulo-Barturen, I; Ferrer, SB; Jimenez-Diaz, MB; Gamo, FJ; Goldsmith, EJ; Charman, WN; Bathurst, I; Floyd, D; Matthews, D; Burrows, JN; Rathod, PK; Charman, SA; Phillips, MA

> <Link to Ligand in BindingDB>
http://www.bindingdb.org/bind/chemsearch/marvin/MolStructure.jsp?monomerid=50365244

> <Link to Ligand-Target Pair in BindingDB>
http://www.bindingdb.org/jsp/dbsearch/PrimarySearch_ki.jsp?energyterm=kJ/mole&tag=r21&monomerid=50365244&enzyme=Dihydroorotate+dehydrogenase&column=ki&startPg=0&Increment=50&submit=Search

> <PubChem CID>
44133588

> <PubChem SID>
136969306

$$$$

  Mrv2115 07222212352D          

 26 29  0  0  0  0            999 V2000
    2.1434   -2.8875    0.0000 O   0  0  0  0  0  0  0  0  0  0  0  0
    1.4289   -2.4750    0.0000 C   0  0  0  0  0  0  0  0  0  0  0  0
    0.7145   -2.8875    0.0000 O   0  0  0  0  0  0  0  0  0  0  0  0
    1.4289   -1.6500    0.0000 C   0  0  0  0  0  0  0  0  0  0  0  0
    0.7145   -1.2375    0.0000 C   0  0  0  0  0  0  0  0  0  0  0  0
    0.7145   -0.4125    0.0000 C   0  0  0  0  0  0  0  0  0  0  0  0
    0.0000    0.0000    0.0000 C   0  0  0  0  0  0  0  0  0  0  0  0
   -0.7145   -0.4125    0.0000 C   0  0  0  0  0  0  0  0  0  0  0  0
   -1.4289    0.0000    0.0000 C   0  0  0  0  0  0  0  0  0  0  0  0
   -1.4289    0.8250    0.0000 C   0  0  0  0  0  0  0  0  0  0  0  0
   -2.1434    1.2375    0.0000 C   0  0  0  0  0  0  0  0  0  0  0  0
   -2.8579    0.8250    0.0000 C   0  0  0  0  0  0  0  0  0  0  0  0
   -3.5724    1.2375    0.0000 C   0  0  0  0  0  0  0  0  0  0  0  0
   -3.5724    2.0625    0.0000 C   0  0  0  0  0  0  0  0  0  0  0  0
   -2.8579    2.4750    0.0000 N   0  0  0  0  0  0  0  0  0  0  0  0
   -2.1434    2.0625    0.0000 C   0  0  0  0  0  0  0  0  0  0  0  0
   -1.4289    2.4750    0.0000 Cl  0  0  0  0  0  0  0  0  0  0  0  0
   -0.7145    1.2375    0.0000 C   0  0  0  0  0  0  0  0  0  0  0  0
    0.0000    0.8250    0.0000 C   0  0  0  0  0  0  0  0  0  0  0  0
    1.4289    0.0000    0.0000 N   0  0  0  0  0  0  0  0  0  0  0  0
    2.1434   -0.4125    0.0000 C   0  0  0  0  0  0  0  0  0  0  0  0
    2.8579    0.0000    0.0000 C   0  0  0  0  0  0  0  0  0  0  0  0
    3.5724   -0.4125    0.0000 C   0  0  0  0  0  0  0  0  0  0  0  0
    3.5724   -1.2375    0.0000 C   0  0  0  0  0  0  0  0  0  0  0  0
    2.8579   -1.6500    0.0000 C   0  0  0  0  0  0  0  0  0  0  0  0
    2.1434   -1.2375    0.0000 C   0  0  0  0  0  0  0  0  0  0  0  0
  1  2  2  0  0  0  0
  2  3  1  0  0  0  0
  2  4  1  0  0  0  0
  4  5  4  0  0  0  0
  5  6  4  0  0  0  0
  6  7  1  0  0  0  0
  7  8  4  0  0  0  0
  8  9  4  0  0  0  0
  9 10  4  0  0  0  0
 10 11  1  0  0  0  0
 11 12  4  0  0  0  0
 12 13  4  0  0  0  0
 13 14  4  0  0  0  0
 14 15  4  0  0  0  0
 15 16  4  0  0  0  0
 11 16  4  0  0  0  0
 16 17  1  0  0  0  0
 10 18  4  0  0  0  0
 18 19  4  0  0  0  0
  7 19  4  0  0  0  0
  6 20  4  0  0  0  0
 20 21  4  0  0  0  0
 21 22  4  0  0  0  0
 22 23  4  0  0  0  0
 23 24  4  0  0  0  0
 24 25  4  0  0  0  0
 25 26  4  0  0  0  0
  4 26  4  0  0  0  0
 21 26  4  0  0  0  0
M  END
> <IC50(uM)>
0.033

> <Outcome>
1.0

> <BindingDB ID>
51126186

> <BindingDB MonomerID>
50461873

> <BindingDB Ligand Name>
CHEMBL4224965

> <Curation/DataSource>
ChEMBL

> <Article DOI>
10.1021/acs.jmedchem.7b01862

> <PMID>
29727569

> <Patent Number>
?

> <Authors>
Madak, JT; Cuthbertson, CR; Miyata, Y; Tamura, S; Petrunak, EM; Stuckey, JA; Han, Y; He, M; Sun, D; Showalter, HD; Neamati, N

> <Link to Ligand in BindingDB>
http://www.bindingdb.org/bind/chemsearch/marvin/MolStructure.jsp?monomerid=50461873

> <Link to Ligand-Target Pair in BindingDB>
http://www.bindingdb.org/jsp/dbsearch/PrimarySearch_ki.jsp?energyterm=kJ/mole&tag=r21&monomerid=50461873&enzyme=Dihydroorotate+dehydrogenase&column=ki&startPg=0&Increment=50&submit=Search

> <PubChem CID>
145968283

> <PubChem SID>
433929138

$$$$

  Mrv2115 07222212352D          

 37 40  0  0  0  0            999 V2000
   -5.1659   -2.8414    0.0000 C   0  0  0  0  0  0  0  0  0  0  0  0
   -5.5784   -2.1269    0.0000 C   0  0  0  0  0  0  0  0  0  0  0  0
   -5.1659   -1.4124    0.0000 C   0  0  0  0  0  0  0  0  0  0  0  0
   -4.3409   -1.4124    0.0000 N   0  0  0  0  0  0  0  0  0  0  0  0
   -3.9284   -0.6979    0.0000 C   0  0  0  0  0  0  0  0  0  0  0  0
   -4.3409    0.0165    0.0000 O   0  0  0  0  0  0  0  0  0  0  0  0
   -3.1034   -0.6979    0.0000 C   0  0  0  0  0  0  0  0  0  0  0  0
   -2.6909    0.0165    0.0000 C   0  0  0  0  0  0  0  0  0  0  0  0
   -1.8659    0.0165    0.0000 C   0  0  0  0  0  0  0  0  0  0  0  0
   -1.4534    0.7310    0.0000 F   0  0  0  0  0  0  0  0  0  0  0  0
   -1.4534   -0.6979    0.0000 C   0  0  0  0  0  0  0  0  0  0  0  0
   -0.6284   -0.6979    0.0000 N   0  0  0  0  0  0  0  0  0  0  0  0
   -0.1435   -1.3654    0.0000 N   0  0  0  0  0  0  0  0  0  0  0  0
    0.6411   -1.1104    0.0000 C   0  0  0  0  0  0  0  0  0  0  0  0
    0.6411   -0.2854    0.0000 N   0  0  0  0  0  0  0  0  0  0  0  0
   -0.1435   -0.0305    0.0000 C   0  0  0  0  0  0  0  0  0  0  0  0
   -0.3984    0.7541    0.0000 O   0  0  0  0  0  0  0  0  0  0  0  0
    1.3556    0.1271    0.0000 C   0  0  0  0  0  0  0  0  0  0  0  0
    2.0701   -0.2854    0.0000 C   0  0  0  0  0  0  0  0  0  0  0  0
    2.0701   -1.1104    0.0000 C   0  0  0  0  0  0  0  0  0  0  0  0
    1.3556   -1.5229    0.0000 C   0  0  0  0  0  0  0  0  0  0  0  0
   -1.8659   -1.4124    0.0000 C   0  0  0  0  0  0  0  0  0  0  0  0
   -2.6909   -1.4124    0.0000 C   0  0  0  0  0  0  0  0  0  0  0  0
   -3.1034   -2.1269    0.0000 O   0  0  0  0  0  0  0  0  0  0  0  0
   -2.6909   -2.8414    0.0000 C   0  0  0  0  0  0  0  0  0  0  0  0
   -1.8659   -2.8414    0.0000 C   0  0  0  0  0  0  0  0  0  0  0  0
   -3.1034   -3.5558    0.0000 C   0  0  0  0  0  0  0  0  0  0  0  0
   -3.8179   -3.1433    0.0000 F   0  0  0  0  0  0  0  0  0  0  0  0
   -2.3890   -3.9683    0.0000 F   0  0  0  0  0  0  0  0  0  0  0  0
   -3.5159   -4.2703    0.0000 F   0  0  0  0  0  0  0  0  0  0  0  0
   -5.5784   -0.6979    0.0000 C   0  0  0  0  0  0  0  0  0  0  0  0
   -6.4034   -0.6979    0.0000 C   0  0  0  0  0  0  0  0  0  0  0  0
   -6.8159   -1.4124    0.0000 C   0  0  0  0  0  0  0  0  0  0  0  0
   -6.4034   -2.1269    0.0000 C   0  0  0  0  0  0  0  0  0  0  0  0
   -6.8159   -2.8414    0.0000 C   0  0  0  0  0  0  0  0  0  0  0  0
   -6.4034   -3.5558    0.0000 N   0  0  0  0  0  0  0  0  0  0  0  0
   -7.6409   -2.8414    0.0000 O   0  0  0  0  0  0  0  0  0  0  0  0
  1  2  1  0  0  0  0
  2  3  4  0  0  0  0
  3  4  1  0  0  0  0
  4  5  1  0  0  0  0
  5  6  2  0  0  0  0
  5  7  1  0  0  0  0
  7  8  4  0  0  0  0
  8  9  4  0  0  0  0
  9 10  1  0  0  0  0
  9 11  4  0  0  0  0
 11 12  1  0  0  0  0
 12 13  4  0  0  0  0
 13 14  4  0  0  0  0
 14 15  4  0  0  0  0
 15 16  4  0  0  0  0
 12 16  4  0  0  0  0
 16 17  2  0  0  0  0
 15 18  1  0  0  0  0
 18 19  1  0  0  0  0
 19 20  1  0  0  0  0
 20 21  1  0  0  0  0
 14 21  1  0  0  0  0
 11 22  4  0  0  0  0
 22 23  4  0  0  0  0
  7 23  4  0  0  0  0
 23 24  1  0  0  0  0
 24 25  1  0  0  0  0
 25 26  1  0  0  0  0
 25 27  1  0  0  0  0
 27 28  1  0  0  0  0
 27 29  1  0  0  0  0
 27 30  1  0  0  0  0
  3 31  4  0  0  0  0
 31 32  4  0  0  0  0
 32 33  4  0  0  0  0
 33 34  4  0  0  0  0
  2 34  4  0  0  0  0
 34 35  1  0  0  0  0
 35 36  1  0  0  0  0
 35 37  2  0  0  0  0
M  END
> <IC50(uM)>
0.3

> <Outcome>
1.0

> <BindingDB ID>
1020496

> <BindingDB MonomerID>
490444

> <BindingDB Ligand Name>
N-(3-carbamoyl-2-methylphenyl)-5-fluoro-4-(3-oxo-5,6,7,8-tetrahydro[1,2,4]triazolo[4,3-a]-pyridin-2(3H)-yl)-2-{[(2S)-1,1,1-trifluoropropan-2-yl]oxy}benzamide::US10968216, Example 112

> <Curation/DataSource>
US Patent

> <Article DOI>
?

> <PMID>
?

> <Patent Number>
US10968216

> <Authors>
Gradl, SN; Nguyen, D; Eis, K; Gunther, J; Stellfeld, T; Janzer, A; Christian, S; Mueller, T; Sheikh, SE; Zhou, HJ; Zhao, C; Sykes, DB; Ferrara, SJ; Liu, K; Herbert, SA; Merz, C; Niehues, M; Nising, CF; Schafer, M; Zimmermann, K; Knablein, J; Thede, K; Faupel, T

> <Link to Ligand in BindingDB>
http://www.bindingdb.org/bind/chemsearch/marvin/MolStructure.jsp?monomerid=490444

> <Link to Ligand-Target Pair in BindingDB>
http://www.bindingdb.org/jsp/dbsearch/PrimarySearch_ki.jsp?energyterm=kJ/mole&tag=r21&monomerid=490444&enzyme=Dihydroorotate+dehydrogenase&column=ki&startPg=0&Increment=50&submit=Search

> <PubChem CID>
134474317

> <PubChem SID>
447117171

$$$$

  Mrv2115 07222212352D          

 25 28  0  0  0  0            999 V2000
    4.0668    2.3479    0.0000 C   0  0  0  0  0  0  0  0  0  0  0  0
    3.3523    1.9354    0.0000 C   0  0  0  0  0  0  0  0  0  0  0  0
    3.3523    1.1104    0.0000 C   0  0  0  0  0  0  0  0  0  0  0  0
    2.6378    0.6979    0.0000 C   0  0  0  0  0  0  0  0  0  0  0  0
    2.6378   -0.1271    0.0000 C   0  0  0  0  0  0  0  0  0  0  0  0
    1.9233   -0.5396    0.0000 O   0  0  0  0  0  0  0  0  0  0  0  0
    3.3523   -0.5396    0.0000 O   0  0  0  0  0  0  0  0  0  0  0  0
    1.9233    1.1104    0.0000 C   0  0  0  0  0  0  0  0  0  0  0  0
    1.1387    0.8555    0.0000 N   0  0  0  0  0  0  0  0  0  0  0  0
    0.6538    1.5229    0.0000 C   0  0  0  0  0  0  0  0  0  0  0  0
   -0.1712    1.5229    0.0000 C   0  0  0  0  0  0  0  0  0  0  0  0
   -0.5837    0.8085    0.0000 C   0  0  0  0  0  0  0  0  0  0  0  0
   -1.4087    0.8085    0.0000 C   0  0  0  0  0  0  0  0  0  0  0  0
   -1.8212    1.5229    0.0000 C   0  0  0  0  0  0  0  0  0  0  0  0
   -2.6462    1.5229    0.0000 C   0  0  0  0  0  0  0  0  0  0  0  0
   -3.0587    0.8085    0.0000 C   0  0  0  0  0  0  0  0  0  0  0  0
   -3.8837    0.8085    0.0000 C   0  0  0  0  0  0  0  0  0  0  0  0
   -4.2962    1.5229    0.0000 C   0  0  0  0  0  0  0  0  0  0  0  0
   -3.8837    2.2374    0.0000 C   0  0  0  0  0  0  0  0  0  0  0  0
   -3.0587    2.2374    0.0000 C   0  0  0  0  0  0  0  0  0  0  0  0
   -1.4087    2.2374    0.0000 C   0  0  0  0  0  0  0  0  0  0  0  0
   -0.5837    2.2374    0.0000 C   0  0  0  0  0  0  0  0  0  0  0  0
    1.1387    2.1904    0.0000 N   0  0  0  0  0  0  0  0  0  0  0  0
    1.9233    1.9354    0.0000 C   0  0  0  0  0  0  0  0  0  0  0  0
    2.6378    2.3479    0.0000 C   0  0  0  0  0  0  0  0  0  0  0  0
  1  2  1  0  0  0  0
  2  3  4  0  0  0  0
  3  4  4  0  0  0  0
  4  5  1  0  0  0  0
  5  6  2  0  0  0  0
  5  7  1  0  0  0  0
  4  8  4  0  0  0  0
  8  9  4  0  0  0  0
  9 10  4  0  0  0  0
 10 11  1  0  0  0  0
 11 12  4  0  0  0  0
 12 13  4  0  0  0  0
 13 14  4  0  0  0  0
 14 15  1  0  0  0  0
 15 16  4  0  0  0  0
 16 17  4  0  0  0  0
 17 18  4  0  0  0  0
 18 19  4  0  0  0  0
 19 20  4  0  0  0  0
 15 20  4  0  0  0  0
 14 21  4  0  0  0  0
 21 22  4  0  0  0  0
 11 22  4  0  0  0  0
 10 23  4  0  0  0  0
 23 24  4  0  0  0  0
  8 24  4  0  0  0  0
 24 25  4  0  0  0  0
  2 25  4  0  0  0  0
M  STY  1   1 DAT
M  SAL   1  1  23
M  SDT   1 MRV_IMPLICIT_H                                        
M  SDD   1     0.5304   -0.4125    DR    ALL  0       0  
M  SED   1 IMPL_H1
M  END
> <IC50(uM)>
0.304

> <Outcome>
1.0

> <BindingDB ID>
297749

> <BindingDB MonomerID>
155405

> <BindingDB Ligand Name>
US9006454, I14

> <Curation/DataSource>
US Patent

> <Article DOI>
?

> <PMID>
?

> <Patent Number>
US9006454

> <Authors>
Thunuguntla, SS; Subramanya, H; Kunnam, SR; Sanivaru Vijay, SR; Bingi, C; Kusanur, R; Schwarz, M; Arlt, M

> <Link to Ligand in BindingDB>
http://www.bindingdb.org/bind/chemsearch/marvin/MolStructure.jsp?monomerid=155405

> <Link to Ligand-Target Pair in BindingDB>
http://www.bindingdb.org/jsp/dbsearch/PrimarySearch_ki.jsp?energyterm=kJ/mole&tag=r21&monomerid=155405&enzyme=Dihydroorotate+dehydrogenase&column=ki&startPg=0&Increment=50&submit=Search

> <PubChem CID>
46945790

> <PubChem SID>
253658342

$$$$

  Mrv2115 07222212352D          

 37 40  0  0  0  0            999 V2000
   -3.1034    2.1599    0.0000 C   0  0  0  0  0  0  0  0  0  0  0  0
   -2.6909    1.4455    0.0000 C   0  0  0  0  0  0  0  0  0  0  0  0
   -3.1034    0.7310    0.0000 O   0  0  0  0  0  0  0  0  0  0  0  0
   -2.6909    0.0165    0.0000 C   0  0  0  0  0  0  0  0  0  0  0  0
   -1.8659    0.0165    0.0000 C   0  0  0  0  0  0  0  0  0  0  0  0
   -1.4534   -0.6979    0.0000 C   0  0  0  0  0  0  0  0  0  0  0  0
   -0.6284   -0.6979    0.0000 N   0  0  0  0  0  0  0  0  0  0  0  0
   -0.1435   -1.3654    0.0000 N   0  0  0  0  0  0  0  0  0  0  0  0
    0.6411   -1.1104    0.0000 C   0  0  0  0  0  0  0  0  0  0  0  0
    0.6411   -0.2854    0.0000 N   0  0  0  0  0  0  0  0  0  0  0  0
   -0.1435   -0.0305    0.0000 C   0  0  0  0  0  0  0  0  0  0  0  0
   -0.3984    0.7541    0.0000 O   0  0  0  0  0  0  0  0  0  0  0  0
    1.3556    0.1271    0.0000 C   0  0  0  0  0  0  0  0  0  0  0  0
    2.0701   -0.2854    0.0000 C   0  0  0  0  0  0  0  0  0  0  0  0
    2.0701   -1.1104    0.0000 C   0  0  0  0  0  0  0  0  0  0  0  0
    1.3556   -1.5229    0.0000 C   0  0  0  0  0  0  0  0  0  0  0  0
   -1.8659   -1.4124    0.0000 C   0  0  0  0  0  0  0  0  0  0  0  0
   -1.4534   -2.1269    0.0000 F   0  0  0  0  0  0  0  0  0  0  0  0
   -2.6909   -1.4124    0.0000 C   0  0  0  0  0  0  0  0  0  0  0  0
   -3.1034   -0.6979    0.0000 C   0  0  0  0  0  0  0  0  0  0  0  0
   -3.9284   -0.6979    0.0000 C   0  0  0  0  0  0  0  0  0  0  0  0
   -4.3409   -1.4124    0.0000 O   0  0  0  0  0  0  0  0  0  0  0  0
   -4.3409    0.0165    0.0000 N   0  0  0  0  0  0  0  0  0  0  0  0
   -5.1659    0.0165    0.0000 C   0  0  0  0  0  0  0  0  0  0  0  0
   -5.5784   -0.6979    0.0000 C   0  0  0  0  0  0  0  0  0  0  0  0
   -6.4034   -0.6979    0.0000 C   0  0  0  0  0  0  0  0  0  0  0  0
   -6.8159    0.0165    0.0000 C   0  0  0  0  0  0  0  0  0  0  0  0
   -6.4034    0.7310    0.0000 C   0  0  0  0  0  0  0  0  0  0  0  0
   -6.8159    1.4455    0.0000 C   0  0  0  0  0  0  0  0  0  0  0  0
   -7.2284    2.1599    0.0000 F   0  0  0  0  0  0  0  0  0  0  0  0
   -6.1015    1.8580    0.0000 F   0  0  0  0  0  0  0  0  0  0  0  0
   -7.5304    1.0330    0.0000 F   0  0  0  0  0  0  0  0  0  0  0  0
   -5.5784    0.7310    0.0000 C   0  0  0  0  0  0  0  0  0  0  0  0
   -1.8659    1.4455    0.0000 C   0  0  0  0  0  0  0  0  0  0  0  0
   -1.8659    0.6205    0.0000 F   0  0  0  0  0  0  0  0  0  0  0  0
   -1.8659    2.2705    0.0000 F   0  0  0  0  0  0  0  0  0  0  0  0
   -1.0409    1.4455    0.0000 F   0  0  0  0  0  0  0  0  0  0  0  0
  1  2  1  0  0  0  0
  2  3  1  0  0  0  0
  3  4  1  0  0  0  0
  4  5  4  0  0  0  0
  5  6  4  0  0  0  0
  6  7  1  0  0  0  0
  7  8  4  0  0  0  0
  8  9  4  0  0  0  0
  9 10  4  0  0  0  0
 10 11  4  0  0  0  0
  7 11  4  0  0  0  0
 11 12  2  0  0  0  0
 10 13  1  0  0  0  0
 13 14  1  0  0  0  0
 14 15  1  0  0  0  0
 15 16  1  0  0  0  0
  9 16  1  0  0  0  0
  6 17  4  0  0  0  0
 17 18  1  0  0  0  0
 17 19  4  0  0  0  0
 19 20  4  0  0  0  0
  4 20  4  0  0  0  0
 20 21  1  0  0  0  0
 21 22  2  0  0  0  0
 21 23  1  0  0  0  0
 23 24  1  0  0  0  0
 24 25  4  0  0  0  0
 25 26  4  0  0  0  0
 26 27  4  0  0  0  0
 27 28  4  0  0  0  0
 28 29  1  0  0  0  0
 29 30  1  0  0  0  0
 29 31  1  0  0  0  0
 29 32  1  0  0  0  0
 28 33  4  0  0  0  0
 24 33  4  0  0  0  0
  2 34  1  0  0  0  0
 34 35  1  0  0  0  0
 34 36  1  0  0  0  0
 34 37  1  0  0  0  0
M  END
> <IC50(uM)>
0.308

> <Outcome>
1.0

> <BindingDB ID>
1020411; 1020410

> <BindingDB MonomerID>
490362

> <BindingDB Ligand Name>
5-fluoro-4-(3-oxo-5,6,7,8-tetrahydro[1,2,4]triazolo[4,3-a]pyridin-2(3H)-yl)-N-[3-(trifluoromethyl)-phenyl]-2-{[(2S)-1,1,1-trifluoropropan-2-yl]oxy}benzamide::US10968216, Example 30

> <Curation/DataSource>
US Patent

> <Article DOI>
?

> <PMID>
?

> <Patent Number>
US10968216

> <Authors>
Gradl, SN; Nguyen, D; Eis, K; Gunther, J; Stellfeld, T; Janzer, A; Christian, S; Mueller, T; Sheikh, SE; Zhou, HJ; Zhao, C; Sykes, DB; Ferrara, SJ; Liu, K; Herbert, SA; Merz, C; Niehues, M; Nising, CF; Schafer, M; Zimmermann, K; Knablein, J; Thede, K; Faupel, T

> <Link to Ligand in BindingDB>
http://www.bindingdb.org/bind/chemsearch/marvin/MolStructure.jsp?monomerid=490362

> <Link to Ligand-Target Pair in BindingDB>
http://www.bindingdb.org/jsp/dbsearch/PrimarySearch_ki.jsp?energyterm=kJ/mole&tag=r21&monomerid=490362&enzyme=Dihydroorotate+dehydrogenase&column=ki&startPg=0&Increment=50&submit=Search

> <PubChem CID>
134474282

> <PubChem SID>
447117089

$$$$

  Mrv2115 07222212352D          

 24 26  0  0  0  0            999 V2000
   -0.0000    9.2026    0.0000 C   0  0  0  0  0  0  0  0  0  0  0  0
   -0.7145    8.7901    0.0000 N   0  0  0  0  0  0  0  0  0  0  0  0
   -1.4289    9.2026    0.0000 C   0  0  0  0  0  0  0  0  0  0  0  0
   -1.4289   10.0276    0.0000 C   0  0  0  0  0  0  0  0  0  0  0  0
   -2.1434   10.4401    0.0000 C   0  0  0  0  0  0  0  0  0  0  0  0
   -2.1434   11.2651    0.0000 C   0  0  0  0  0  0  0  0  0  0  0  0
   -1.4289   11.6776    0.0000 C   0  0  0  0  0  0  0  0  0  0  0  0
   -0.7145   11.2651    0.0000 N   0  0  0  0  0  0  0  0  0  0  0  0
   -0.7145   10.4401    0.0000 C   0  0  0  0  0  0  0  0  0  0  0  0
   -0.7145    7.9651    0.0000 C   0  0  0  0  0  0  0  0  0  0  0  0
    0.0000    7.5526    0.0000 C   0  0  0  0  0  0  0  0  0  0  0  0
    0.0000    6.7276    0.0000 C   0  0  0  0  0  0  0  0  0  0  0  0
   -0.7145    6.3151    0.0000 C   0  0  0  0  0  0  0  0  0  0  0  0
   -0.7145    5.4901    0.0000 N   0  0  0  0  0  0  0  0  0  0  0  0
   -0.0000    5.0776    0.0000 C   0  0  0  0  0  0  0  0  0  0  0  0
    0.7145    5.4901    0.0000 O   0  0  0  0  0  0  0  0  0  0  0  0
   -0.0000    4.2526    0.0000 C   0  0  0  0  0  0  0  0  0  0  0  0
    0.4125    3.5382    0.0000 C   0  0  0  0  0  0  0  0  0  0  0  0
   -0.4125    3.5382    0.0000 C   0  0  0  0  0  0  0  0  0  0  0  0
   -1.4289    6.7276    0.0000 C   0  0  0  0  0  0  0  0  0  0  0  0
   -2.1434    6.3151    0.0000 C   0  0  0  0  0  0  0  0  0  0  0  0
   -2.8579    6.7276    0.0000 O   0  0  0  0  0  0  0  0  0  0  0  0
   -2.1434    5.4901    0.0000 O   0  0  0  0  0  0  0  0  0  0  0  0
   -1.4289    7.5526    0.0000 C   0  0  0  0  0  0  0  0  0  0  0  0
  1  2  1  0  0  0  0
  2  3  1  0  0  0  0
  3  4  1  0  0  0  0
  4  5  4  0  0  0  0
  5  6  4  0  0  0  0
  6  7  4  0  0  0  0
  7  8  4  0  0  0  0
  8  9  4  0  0  0  0
  4  9  4  0  0  0  0
  2 10  1  0  0  0  0
 10 11  4  0  0  0  0
 11 12  4  0  0  0  0
 12 13  4  0  0  0  0
 13 14  1  0  0  0  0
 14 15  1  0  0  0  0
 15 16  2  0  0  0  0
 15 17  1  0  0  0  0
 17 18  1  0  0  0  0
 18 19  1  0  0  0  0
 17 19  1  0  0  0  0
 13 20  4  0  0  0  0
 20 21  1  0  0  0  0
 21 22  2  0  0  0  0
 21 23  1  0  0  0  0
 20 24  4  0  0  0  0
 10 24  4  0  0  0  0
M  END
> <IC50(uM)>
0.1

> <Outcome>
1.0

> <BindingDB ID>
50565531

> <BindingDB MonomerID>
50313603

> <BindingDB Ligand Name>
2-(cyclopropanecarboxamido)-5-(methyl(pyridin-3-ylmethyl)amino)benzoic acid::2-[(cyclopropylcarbonyl)amino]-5-[methyl(pyridin-3-ylmethyl)amino]benzoic acid::CHEMBL1084928

> <Curation/DataSource>
ChEMBL

> <Article DOI>
10.1016/j.bmcl.2010.01.115

> <PMID>
20153645

> <Patent Number>
?

> <Authors>
McLean, LR; Zhang, Y; Degnen, W; Peppard, J; Cabel, D; Zou, C; Tsay, JT; Subramaniam, A; Vaz, RJ; Li, Y

> <Link to Ligand in BindingDB>
http://www.bindingdb.org/bind/chemsearch/marvin/MolStructure.jsp?monomerid=50313603

> <Link to Ligand-Target Pair in BindingDB>
http://www.bindingdb.org/jsp/dbsearch/PrimarySearch_ki.jsp?energyterm=kJ/mole&tag=r21&monomerid=50313603&enzyme=Dihydroorotate+dehydrogenase&column=ki&startPg=0&Increment=50&submit=Search

> <PubChem CID>
44631844

> <PubChem SID>
104147964

$$$$

  Mrv2115 07222212352D          

 38 42  0  0  0  0            999 V2000
   -7.6409   -2.8414    0.0000 C   0  0  0  0  0  0  0  0  0  0  0  0
   -6.8159   -2.8414    0.0000 O   0  0  0  0  0  0  0  0  0  0  0  0
   -6.4034   -2.1269    0.0000 C   0  0  0  0  0  0  0  0  0  0  0  0
   -6.8159   -1.4124    0.0000 C   0  0  0  0  0  0  0  0  0  0  0  0
   -6.4034   -0.6979    0.0000 N   0  0  0  0  0  0  0  0  0  0  0  0
   -5.5784   -0.6979    0.0000 C   0  0  0  0  0  0  0  0  0  0  0  0
   -5.1659   -1.4124    0.0000 C   0  0  0  0  0  0  0  0  0  0  0  0
   -4.3409   -1.4124    0.0000 N   0  0  0  0  0  0  0  0  0  0  0  0
   -3.9284   -0.6979    0.0000 C   0  0  0  0  0  0  0  0  0  0  0  0
   -4.3409    0.0165    0.0000 O   0  0  0  0  0  0  0  0  0  0  0  0
   -3.1034   -0.6979    0.0000 C   0  0  0  0  0  0  0  0  0  0  0  0
   -2.6909    0.0165    0.0000 C   0  0  0  0  0  0  0  0  0  0  0  0
   -1.8659    0.0165    0.0000 C   0  0  0  0  0  0  0  0  0  0  0  0
   -1.4534    0.7310    0.0000 F   0  0  0  0  0  0  0  0  0  0  0  0
   -1.4534   -0.6979    0.0000 C   0  0  0  0  0  0  0  0  0  0  0  0
   -0.6284   -0.6979    0.0000 N   0  0  0  0  0  0  0  0  0  0  0  0
   -0.1435   -1.3654    0.0000 N   0  0  0  0  0  0  0  0  0  0  0  0
    0.6411   -1.1104    0.0000 C   0  0  0  0  0  0  0  0  0  0  0  0
    0.6411   -0.2854    0.0000 N   0  0  0  0  0  0  0  0  0  0  0  0
   -0.1435   -0.0305    0.0000 C   0  0  0  0  0  0  0  0  0  0  0  0
   -0.3984    0.7541    0.0000 O   0  0  0  0  0  0  0  0  0  0  0  0
    1.3556    0.1271    0.0000 C   0  0  0  0  0  0  0  0  0  0  0  0
    2.0701   -0.2854    0.0000 C   0  0  0  0  0  0  0  0  0  0  0  0
    2.0701   -1.1104    0.0000 C   0  0  0  0  0  0  0  0  0  0  0  0
    1.3556   -1.5229    0.0000 C   0  0  0  0  0  0  0  0  0  0  0  0
   -1.8659   -1.4124    0.0000 C   0  0  0  0  0  0  0  0  0  0  0  0
   -2.6909   -1.4124    0.0000 C   0  0  0  0  0  0  0  0  0  0  0  0
   -3.1034   -2.1269    0.0000 O   0  0  0  0  0  0  0  0  0  0  0  0
   -2.6909   -2.8414    0.0000 C   0  0  0  0  0  0  0  0  0  0  0  0
   -1.8659   -2.8414    0.0000 C   0  0  0  0  0  0  0  0  0  0  0  0
   -3.1034   -3.5558    0.0000 C   0  0  0  0  0  0  0  0  0  0  0  0
   -2.6909   -4.2703    0.0000 C   0  0  0  0  0  0  0  0  0  0  0  0
   -3.1034   -4.9848    0.0000 C   0  0  0  0  0  0  0  0  0  0  0  0
   -3.9284   -4.9848    0.0000 C   0  0  0  0  0  0  0  0  0  0  0  0
   -4.3409   -4.2703    0.0000 C   0  0  0  0  0  0  0  0  0  0  0  0
   -3.9284   -3.5558    0.0000 C   0  0  0  0  0  0  0  0  0  0  0  0
   -5.5784   -2.1269    0.0000 C   0  0  0  0  0  0  0  0  0  0  0  0
   -5.1659   -2.8414    0.0000 C   0  0  0  0  0  0  0  0  0  0  0  0
  1  2  1  0  0  0  0
  2  3  1  0  0  0  0
  3  4  4  0  0  0  0
  4  5  4  0  0  0  0
  5  6  4  0  0  0  0
  6  7  4  0  0  0  0
  7  8  1  0  0  0  0
  8  9  1  0  0  0  0
  9 10  2  0  0  0  0
  9 11  1  0  0  0  0
 11 12  4  0  0  0  0
 12 13  4  0  0  0  0
 13 14  1  0  0  0  0
 13 15  4  0  0  0  0
 15 16  1  0  0  0  0
 16 17  4  0  0  0  0
 17 18  4  0  0  0  0
 18 19  4  0  0  0  0
 19 20  4  0  0  0  0
 16 20  4  0  0  0  0
 20 21  2  0  0  0  0
 19 22  1  0  0  0  0
 22 23  1  0  0  0  0
 23 24  1  0  0  0  0
 24 25  1  0  0  0  0
 18 25  1  0  0  0  0
 15 26  4  0  0  0  0
 26 27  4  0  0  0  0
 11 27  4  0  0  0  0
 27 28  1  0  0  0  0
 28 29  1  0  0  0  0
 29 30  1  0  0  0  0
 29 31  1  0  0  0  0
 31 32  1  0  0  0  0
 32 33  1  0  0  0  0
 33 34  1  0  0  0  0
 34 35  1  0  0  0  0
 35 36  1  0  0  0  0
 31 36  1  0  0  0  0
  7 37  4  0  0  0  0
  3 37  4  0  0  0  0
 37 38  1  0  0  0  0
M  END
> <IC50(uM)>
0.05

> <Outcome>
1.0

> <BindingDB ID>
1020505

> <BindingDB MonomerID>
490453

> <BindingDB Ligand Name>
2-[(1S)-1-cyclohexylethoxy]-5-fluoro-N-(5-methoxy-4-methylpyridin-3-yl)-4-(3-oxo-5,6,7,8-tetrahydro[1,2,4]triazolo[4,3-a]pyridin-2(3H)-yl)benzamide::US10968216, Example 121

> <Curation/DataSource>
US Patent

> <Article DOI>
?

> <PMID>
?

> <Patent Number>
US10968216

> <Authors>
Gradl, SN; Nguyen, D; Eis, K; Gunther, J; Stellfeld, T; Janzer, A; Christian, S; Mueller, T; Sheikh, SE; Zhou, HJ; Zhao, C; Sykes, DB; Ferrara, SJ; Liu, K; Herbert, SA; Merz, C; Niehues, M; Nising, CF; Schafer, M; Zimmermann, K; Knablein, J; Thede, K; Faupel, T

> <Link to Ligand in BindingDB>
http://www.bindingdb.org/bind/chemsearch/marvin/MolStructure.jsp?monomerid=490453

> <Link to Ligand-Target Pair in BindingDB>
http://www.bindingdb.org/jsp/dbsearch/PrimarySearch_ki.jsp?energyterm=kJ/mole&tag=r21&monomerid=490453&enzyme=Dihydroorotate+dehydrogenase&column=ki&startPg=0&Increment=50&submit=Search

> <PubChem CID>
134474122

> <PubChem SID>
447117180

$$$$

  Mrv2115 07222212352D          

 14 15  0  0  0  0            999 V2000
    4.0668    3.1729    0.0000 C   0  0  0  0  0  0  0  0  0  0  0  0
    4.0668    2.3479    0.0000 C   0  0  0  0  0  0  0  0  0  0  0  0
    4.7812    1.9354    0.0000 C   0  0  0  0  0  0  0  0  0  0  0  0
    3.3523    1.9354    0.0000 C   0  0  0  0  0  0  0  0  0  0  0  0
    3.3523    1.1104    0.0000 N   0  0  0  0  0  0  0  0  0  0  0  0
    2.6378    0.6979    0.0000 C   0  0  0  0  0  0  0  0  0  0  0  0
    2.6378   -0.1271    0.0000 O   0  0  0  0  0  0  0  0  0  0  0  0
    1.9233    1.1104    0.0000 C   0  0  0  0  0  0  0  0  0  0  0  0
    1.1387    0.8555    0.0000 C   0  0  0  0  0  0  0  0  0  0  0  0
    0.6538    1.5229    0.0000 C   0  0  0  0  0  0  0  0  0  0  0  0
    1.1387    2.1904    0.0000 C   0  0  0  0  0  0  0  0  0  0  0  0
    1.9233    1.9354    0.0000 N   0  0  0  0  0  0  0  0  0  0  0  0
    2.6378    2.3479    0.0000 C   0  0  0  0  0  0  0  0  0  0  0  0
    2.6378    3.1729    0.0000 O   0  0  0  0  0  0  0  0  0  0  0  0
  1  2  1  0  0  0  0
  2  3  1  0  0  0  0
  2  4  1  0  0  0  0
  4  5  1  0  0  0  0
  5  6  1  0  0  0  0
  6  7  2  0  0  0  0
  6  8  1  0  0  0  0
  8  9  1  0  0  0  0
  9 10  1  0  0  0  0
 10 11  1  0  0  0  0
 11 12  1  0  0  0  0
  8 12  1  0  0  0  0
 12 13  1  0  0  0  0
  4 13  1  0  0  0  0
 13 14  2  0  0  0  0
M  END
> <IC50(uM)>
50.0

> <Outcome>
0.0

> <BindingDB ID>
306826

> <BindingDB MonomerID>
163711

> <BindingDB Ligand Name>
Cyclo L-Pro-L-Val (Fr. 2-1)

> <Curation/DataSource>
Curated from the literature by BindingDB

> <Article DOI>
10.1111/cbdd.12530

> <PMID>
25626527

> <Patent Number>
?

> <Authors>
Jiang, L; Wen, H; Shao, Y; Yu, R; Liu, Z; Wang, S; Wang, Q; Zhao, X; Zhang, P; Tao, Y; Mei, L

> <Link to Ligand in BindingDB>
http://www.bindingdb.org/bind/chemsearch/marvin/MolStructure.jsp?monomerid=163711

> <Link to Ligand-Target Pair in BindingDB>
http://www.bindingdb.org/jsp/dbsearch/PrimarySearch_ki.jsp?energyterm=kJ/mole&tag=r21&monomerid=163711&enzyme=Dihydroorotate+dehydrogenase&column=ki&startPg=0&Increment=50&submit=Search

> <PubChem CID>
6992261

> <PubChem SID>
311419062

$$$$

  Mrv2115 07222212352D          

 36 40  0  0  0  0            999 V2000
    0.8838   -2.1500    0.0000 C   0  0  0  0  0  0  0  0  0  0  0  0
    1.1387   -1.3654    0.0000 N   0  0  0  0  0  0  0  0  0  0  0  0
    0.6538   -0.6979    0.0000 N   0  0  0  0  0  0  0  0  0  0  0  0
    1.1387   -0.0305    0.0000 N   0  0  0  0  0  0  0  0  0  0  0  0
    1.9233   -0.2854    0.0000 C   0  0  0  0  0  0  0  0  0  0  0  0
    2.6378    0.1271    0.0000 C   0  0  0  0  0  0  0  0  0  0  0  0
    3.3523   -0.2854    0.0000 C   0  0  0  0  0  0  0  0  0  0  0  0
    4.0668    0.1271    0.0000 C   0  0  0  0  0  0  0  0  0  0  0  0
    4.0668    0.9521    0.0000 C   0  0  0  0  0  0  0  0  0  0  0  0
    3.3523    1.3646    0.0000 F   0  0  0  0  0  0  0  0  0  0  0  0
    4.7812    1.3646    0.0000 C   0  0  0  0  0  0  0  0  0  0  0  0
    4.7812    2.1896    0.0000 F   0  0  0  0  0  0  0  0  0  0  0  0
    5.4957    0.9521    0.0000 C   0  0  0  0  0  0  0  0  0  0  0  0
    6.2102    1.3646    0.0000 C   0  0  0  0  0  0  0  0  0  0  0  0
    6.2102    2.1896    0.0000 C   0  0  0  0  0  0  0  0  0  0  0  0
    6.9246    2.6021    0.0000 C   0  0  0  0  0  0  0  0  0  0  0  0
    7.6391    2.1896    0.0000 C   0  0  0  0  0  0  0  0  0  0  0  0
    7.6391    1.3646    0.0000 C   0  0  0  0  0  0  0  0  0  0  0  0
    8.3536    0.9521    0.0000 C   0  0  0  0  0  0  0  0  0  0  0  0
    8.3536    0.1271    0.0000 N   0  0  0  0  0  0  0  0  0  0  0  0
    9.0681   -0.2854    0.0000 C   0  0  0  0  0  0  0  0  0  0  0  0
    9.0681   -1.1104    0.0000 C   0  0  0  0  0  0  0  0  0  0  0  0
    8.3536   -1.5229    0.0000 C   0  0  0  0  0  0  0  0  0  0  0  0
    7.6391   -1.1104    0.0000 C   0  0  0  0  0  0  0  0  0  0  0  0
    7.6391   -0.2854    0.0000 C   0  0  0  0  0  0  0  0  0  0  0  0
    6.9246    0.9521    0.0000 C   0  0  0  0  0  0  0  0  0  0  0  0
    5.4957    0.1271    0.0000 C   0  0  0  0  0  0  0  0  0  0  0  0
    6.2102   -0.2854    0.0000 F   0  0  0  0  0  0  0  0  0  0  0  0
    4.7812   -0.2854    0.0000 C   0  0  0  0  0  0  0  0  0  0  0  0
    4.7812   -1.1104    0.0000 F   0  0  0  0  0  0  0  0  0  0  0  0
    3.3523   -1.1104    0.0000 C   0  0  0  0  0  0  0  0  0  0  0  0
    2.6378   -1.5229    0.0000 C   0  0  0  0  0  0  0  0  0  0  0  0
    2.6378   -2.3479    0.0000 C   0  0  0  0  0  0  0  0  0  0  0  0
    1.9233   -2.7604    0.0000 O   0  0  0  0  0  0  0  0  0  0  0  0
    3.3523   -2.7604    0.0000 O   0  0  0  0  0  0  0  0  0  0  0  0
    1.9233   -1.1104    0.0000 C   0  0  0  0  0  0  0  0  0  0  0  0
  1  2  1  0  0  0  0
  2  3  4  0  0  0  0
  3  4  4  0  0  0  0
  4  5  4  0  0  0  0
  5  6  4  0  0  0  0
  6  7  4  0  0  0  0
  7  8  1  0  0  0  0
  8  9  4  0  0  0  0
  9 10  1  0  0  0  0
  9 11  4  0  0  0  0
 11 12  1  0  0  0  0
 11 13  4  0  0  0  0
 13 14  1  0  0  0  0
 14 15  4  0  0  0  0
 15 16  4  0  0  0  0
 16 17  4  0  0  0  0
 17 18  4  0  0  0  0
 18 19  1  0  0  0  0
 19 20  1  0  0  0  0
 20 21  1  0  0  0  0
 21 22  1  0  0  0  0
 22 23  1  0  0  0  0
 23 24  1  0  0  0  0
 24 25  1  0  0  0  0
 20 25  1  0  0  0  0
 18 26  4  0  0  0  0
 14 26  4  0  0  0  0
 13 27  4  0  0  0  0
 27 28  1  0  0  0  0
 27 29  4  0  0  0  0
  8 29  4  0  0  0  0
 29 30  1  0  0  0  0
  7 31  4  0  0  0  0
 31 32  4  0  0  0  0
 32 33  1  0  0  0  0
 33 34  2  0  0  0  0
 33 35  1  0  0  0  0
 32 36  4  0  0  0  0
  5 36  4  0  0  0  0
  2 36  4  0  0  0  0
M  END
> <IC50(uM)>
0.55

> <Outcome>
1.0

> <BindingDB ID>
1100171

> <BindingDB MonomerID>
520630

> <BindingDB Ligand Name>
1-methyl-5-(2,3,5,6-tetrafluoro-3'-(piperidin-1-ylmethyl)-[1,1'-biphenyl]-4-yl)- 1H-benzo[d][1,2,3]triazole-7-carboxylic acid.2,2,2-trifluoroacetic acid;::US11147801, Compound 34

> <Curation/DataSource>
US Patent

> <Article DOI>
?

> <PMID>
?

> <Patent Number>
US11147801

> <Authors>
Nellore, K; Hosahalli, S

> <Link to Ligand in BindingDB>
http://www.bindingdb.org/bind/chemsearch/marvin/MolStructure.jsp?monomerid=520630

> <Link to Ligand-Target Pair in BindingDB>
http://www.bindingdb.org/jsp/dbsearch/PrimarySearch_ki.jsp?energyterm=kJ/mole&tag=r21&monomerid=520630&enzyme=Dihydroorotate+dehydrogenase&column=ki&startPg=0&Increment=50&submit=Search

> <PubChem CID>
?

> <PubChem SID>
?

$$$$

  Mrv2115 07222212352D          

 32 34  0  0  0  0            999 V2000
   -3.4714   -7.5203    0.0000 C   0  0  0  0  0  0  0  0  0  0  0  0
   -2.7569   -7.9328    0.0000 C   0  0  0  0  0  0  0  0  0  0  0  0
   -2.7569   -8.7578    0.0000 C   0  0  0  0  0  0  0  0  0  0  0  0
   -2.0425   -7.5203    0.0000 O   0  0  0  0  0  0  0  0  0  0  0  0
   -1.3280   -7.9328    0.0000 C   0  0  0  0  0  0  0  0  0  0  0  0
   -1.3280   -8.7578    0.0000 O   0  0  0  0  0  0  0  0  0  0  0  0
   -0.6135   -7.5203    0.0000 O   0  0  0  0  0  0  0  0  0  0  0  0
    0.1010   -7.9328    0.0000 C   0  0  0  0  0  0  0  0  0  0  0  0
    0.8154   -7.5203    0.0000 O   0  0  0  0  0  0  0  0  0  0  0  0
    1.5299   -7.9328    0.0000 C   0  0  0  0  0  0  0  0  0  0  0  0
    1.5299   -8.7578    0.0000 O   0  0  0  0  0  0  0  0  0  0  0  0
    2.2444   -7.5203    0.0000 C   0  0  0  0  0  0  0  0  0  0  0  0
    2.2444   -6.6953    0.0000 C   0  0  0  0  0  0  0  0  0  0  0  0
    2.9588   -6.2828    0.0000 C   0  0  0  0  0  0  0  0  0  0  0  0
    3.6733   -6.6953    0.0000 C   0  0  0  0  0  0  0  0  0  0  0  0
    3.6733   -7.5203    0.0000 C   0  0  0  0  0  0  0  0  0  0  0  0
    2.9588   -7.9328    0.0000 C   0  0  0  0  0  0  0  0  0  0  0  0
    2.9588   -8.7578    0.0000 C   0  0  0  0  0  0  0  0  0  0  0  0
    2.2444   -9.1703    0.0000 N   0  0  0  0  0  0  0  0  0  0  0  0
    2.2444   -9.9953    0.0000 N   0  0  0  0  0  0  0  0  0  0  0  0
    2.9588  -10.4078    0.0000 C   0  0  0  0  0  0  0  0  0  0  0  0
    3.7125  -10.0722    0.0000 N   0  0  0  0  0  0  0  0  0  0  0  0
    4.2645  -10.6853    0.0000 C   0  0  0  0  0  0  0  0  0  0  0  0
    5.0850  -10.5991    0.0000 C   0  0  0  0  0  0  0  0  0  0  0  0
    5.4206   -9.8454    0.0000 C   0  0  0  0  0  0  0  0  0  0  0  0
    6.2411   -9.7592    0.0000 C   0  0  0  0  0  0  0  0  0  0  0  0
    6.7260  -10.4266    0.0000 C   0  0  0  0  0  0  0  0  0  0  0  0
    6.3904  -11.1803    0.0000 C   0  0  0  0  0  0  0  0  0  0  0  0
    5.5699  -11.2665    0.0000 C   0  0  0  0  0  0  0  0  0  0  0  0
    5.2344  -12.0202    0.0000 Cl  0  0  0  0  0  0  0  0  0  0  0  0
    3.8520  -11.3998    0.0000 C   0  0  0  0  0  0  0  0  0  0  0  0
    3.0451  -11.2283    0.0000 S   0  0  0  0  0  0  0  0  0  0  0  0
  1  2  1  0  0  0  0
  2  3  1  0  0  0  0
  2  4  1  0  0  0  0
  4  5  1  0  0  0  0
  5  6  2  0  0  0  0
  5  7  1  0  0  0  0
  7  8  1  0  0  0  0
  8  9  1  0  0  0  0
  9 10  1  0  0  0  0
 10 11  2  0  0  0  0
 10 12  1  0  0  0  0
 12 13  4  0  0  0  0
 13 14  4  0  0  0  0
 14 15  4  0  0  0  0
 15 16  4  0  0  0  0
 16 17  4  0  0  0  0
 12 17  4  0  0  0  0
 17 18  1  0  0  0  0
 18 19  2  0  0  0  0
 19 20  1  0  0  0  0
 20 21  1  0  0  0  0
 21 22  4  0  0  0  0
 22 23  4  0  0  0  0
 23 24  1  0  0  0  0
 24 25  4  0  0  0  0
 25 26  4  0  0  0  0
 26 27  4  0  0  0  0
 27 28  4  0  0  0  0
 28 29  4  0  0  0  0
 24 29  4  0  0  0  0
 29 30  1  0  0  0  0
 23 31  4  0  0  0  0
 31 32  4  0  0  0  0
 21 32  4  0  0  0  0
M  END
> <IC50(uM)>
50.0

> <Outcome>
0.0

> <BindingDB ID>
1001144

> <BindingDB MonomerID>
482830

> <BindingDB Ligand Name>
US10919869, No.  A10

> <Curation/DataSource>
US Patent

> <Article DOI>
?

> <PMID>
?

> <Patent Number>
US10919869

> <Authors>
Li, H; Xu, Y; Wang, R; Zhao, Z; Song, W; Xu, L

> <Link to Ligand in BindingDB>
http://www.bindingdb.org/bind/chemsearch/marvin/MolStructure.jsp?monomerid=482830

> <Link to Ligand-Target Pair in BindingDB>
http://www.bindingdb.org/jsp/dbsearch/PrimarySearch_ki.jsp?energyterm=kJ/mole&tag=r21&monomerid=482830&enzyme=Dihydroorotate+dehydrogenase&column=ki&startPg=0&Increment=50&submit=Search

> <PubChem CID>
132157979

> <PubChem SID>
443551970

$$$$

  Mrv2115 07222212352D          

 20 21  0  0  0  0            999 V2000
    0.6078    1.1759    0.0000 C   0  0  0  0  0  0  0  0  0  0  0  0
    1.3222    0.7634    0.0000 C   0  0  0  0  0  0  0  0  0  0  0  0
    1.3222   -0.0616    0.0000 O   0  0  0  0  0  0  0  0  0  0  0  0
    2.0367   -0.4741    0.0000 C   0  0  0  0  0  0  0  0  0  0  0  0
    2.7512   -0.0616    0.0000 O   0  0  0  0  0  0  0  0  0  0  0  0
    2.0367   -1.2991    0.0000 C   0  0  0  0  0  0  0  0  0  0  0  0
    2.7041   -1.7840    0.0000 S   0  0  0  0  0  0  0  0  0  0  0  0
    2.4492   -2.5687    0.0000 C   0  0  0  0  0  0  0  0  0  0  0  0
    2.9341   -3.2361    0.0000 N   0  0  0  0  0  0  0  0  0  0  0  0
    2.5986   -3.9898    0.0000 C   0  0  0  0  0  0  0  0  0  0  0  0
    3.0835   -4.6572    0.0000 C   0  0  0  0  0  0  0  0  0  0  0  0
    2.7479   -5.4109    0.0000 C   0  0  0  0  0  0  0  0  0  0  0  0
    1.9275   -5.4971    0.0000 C   0  0  0  0  0  0  0  0  0  0  0  0
    1.5919   -6.2508    0.0000 C   0  0  0  0  0  0  0  0  0  0  0  0
    1.4425   -4.8297    0.0000 C   0  0  0  0  0  0  0  0  0  0  0  0
    0.6221   -4.9159    0.0000 C   0  0  0  0  0  0  0  0  0  0  0  0
    1.7781   -4.0760    0.0000 C   0  0  0  0  0  0  0  0  0  0  0  0
    1.6242   -2.5687    0.0000 N   0  0  0  0  0  0  0  0  0  0  0  0
    1.3693   -1.7840    0.0000 C   0  0  0  0  0  0  0  0  0  0  0  0
    0.5846   -1.5291    0.0000 N   0  0  0  0  0  0  0  0  0  0  0  0
  1  2  1  0  0  0  0
  2  3  1  0  0  0  0
  3  4  1  0  0  0  0
  4  5  2  0  0  0  0
  4  6  1  0  0  0  0
  6  7  4  0  0  0  0
  7  8  4  0  0  0  0
  8  9  1  0  0  0  0
  9 10  1  0  0  0  0
 10 11  4  0  0  0  0
 11 12  4  0  0  0  0
 12 13  4  0  0  0  0
 13 14  1  0  0  0  0
 13 15  4  0  0  0  0
 15 16  1  0  0  0  0
 15 17  4  0  0  0  0
 10 17  4  0  0  0  0
  8 18  4  0  0  0  0
 18 19  4  0  0  0  0
  6 19  4  0  0  0  0
 19 20  1  0  0  0  0
M  END
> <IC50(uM)>
2.111

> <Outcome>
0.0

> <BindingDB ID>
50312469

> <BindingDB MonomerID>
50071781

> <BindingDB Ligand Name>
CHEMBL3410582

> <Curation/DataSource>
ChEMBL

> <Article DOI>
10.1021/jm501127s

> <PMID>
25580811

> <Patent Number>
?

> <Authors>
Zhu, J; Han, L; Diao, Y; Ren, X; Xu, M; Xu, L; Li, S; Li, Q; Dong, D; Huang, J; Liu, X; Zhao, Z; Wang, R; Zhu, L; Xu, Y; Qian, X; Li, H

> <Link to Ligand in BindingDB>
http://www.bindingdb.org/bind/chemsearch/marvin/MolStructure.jsp?monomerid=50071781

> <Link to Ligand-Target Pair in BindingDB>
http://www.bindingdb.org/jsp/dbsearch/PrimarySearch_ki.jsp?energyterm=kJ/mole&tag=r21&monomerid=50071781&enzyme=Dihydroorotate+dehydrogenase&column=ki&startPg=0&Increment=50&submit=Search

> <PubChem CID>
118732498

> <PubChem SID>
103965491

$$$$

  Mrv2115 07222212352D          

 25 27  0  0  0  0            999 V2000
   -0.7145   -0.4125    0.0000 C   0  0  0  0  0  0  0  0  0  0  0  0
    0.0000   -0.0000    0.0000 O   0  0  0  0  0  0  0  0  0  0  0  0
    0.7145   -0.4125    0.0000 C   0  0  0  0  0  0  0  0  0  0  0  0
    1.4289    0.0000    0.0000 C   0  0  0  0  0  0  0  0  0  0  0  0
    2.1434   -0.4125    0.0000 C   0  0  0  0  0  0  0  0  0  0  0  0
    2.8579    0.0000    0.0000 C   0  0  0  0  0  0  0  0  0  0  0  0
    3.5724   -0.4125    0.0000 C   0  0  0  0  0  0  0  0  0  0  0  0
    3.5724   -1.2375    0.0000 C   0  0  0  0  0  0  0  0  0  0  0  0
    2.8579   -1.6500    0.0000 C   0  0  0  0  0  0  0  0  0  0  0  0
    2.1434   -1.2375    0.0000 C   0  0  0  0  0  0  0  0  0  0  0  0
    1.4289   -1.6500    0.0000 C   0  0  0  0  0  0  0  0  0  0  0  0
    0.7145   -1.2375    0.0000 C   0  0  0  0  0  0  0  0  0  0  0  0
    0.0000   -1.6500    0.0000 C   0  0  0  0  0  0  0  0  0  0  0  0
    0.0000   -2.4750    0.0000 C   0  0  0  0  0  0  0  0  0  0  0  0
   -0.7145   -2.8875    0.0000 C   0  0  0  0  0  0  0  0  0  0  0  0
   -0.7145   -3.7125    0.0000 C   0  0  0  0  0  0  0  0  0  0  0  0
    0.0000   -4.1250    0.0000 C   0  0  0  0  0  0  0  0  0  0  0  0
    0.0000   -4.9500    0.0000 O   0  0  0  0  0  0  0  0  0  0  0  0
    0.7145   -3.7125    0.0000 O   0  0  0  0  0  0  0  0  0  0  0  0
   -1.4289   -4.1250    0.0000 N   0  0  0  0  0  0  0  0  0  0  0  0
   -2.1434   -3.7125    0.0000 C   0  0  0  0  0  0  0  0  0  0  0  0
   -2.8579   -4.1250    0.0000 O   0  0  0  0  0  0  0  0  0  0  0  0
   -2.1434   -2.8875    0.0000 N   0  0  0  0  0  0  0  0  0  0  0  0
   -1.4289   -2.4750    0.0000 C   0  0  0  0  0  0  0  0  0  0  0  0
   -1.4289   -1.6500    0.0000 O   0  0  0  0  0  0  0  0  0  0  0  0
  1  2  1  0  0  0  0
  2  3  1  0  0  0  0
  3  4  4  0  0  0  0
  4  5  4  0  0  0  0
  5  6  4  0  0  0  0
  6  7  4  0  0  0  0
  7  8  4  0  0  0  0
  8  9  4  0  0  0  0
  9 10  4  0  0  0  0
  5 10  4  0  0  0  0
 10 11  4  0  0  0  0
 11 12  4  0  0  0  0
  3 12  4  0  0  0  0
 12 13  1  0  0  0  0
 13 14  1  0  0  0  0
 14 15  1  0  0  0  0
 15 16  4  0  0  0  0
 16 17  1  0  0  0  0
 17 18  2  0  0  0  0
 17 19  1  0  0  0  0
 16 20  4  0  0  0  0
 20 21  4  0  0  0  0
 21 22  2  0  0  0  0
 21 23  4  0  0  0  0
 23 24  4  0  0  0  0
 15 24  4  0  0  0  0
 24 25  2  0  0  0  0
M  STY  2   1 DAT   2 DAT
M  SAL   1  1  20
M  SDT   1 MRV_IMPLICIT_H                                        
M  SDD   1     0.6482   -0.4125    DR    ALL  0       0  
M  SED   1 IMPL_H1
M  SAL   2  1  23
M  SDT   2 MRV_IMPLICIT_H                                        
M  SDD   2     0.5304   -0.4125    DR    ALL  0       0  
M  SED   2 IMPL_H1
M  END
> <IC50(uM)>
0.04

> <Outcome>
1.0

> <BindingDB ID>
50555344

> <BindingDB MonomerID>
50211942

> <BindingDB Ligand Name>
CHEMBL3935254

> <Curation/DataSource>
ChEMBL

> <Article DOI>
10.1016/j.bmc.2017.01.009

> <PMID>
28118956

> <Patent Number>
?

> <Authors>
Inaoka, DK; Iida, M; Hashimoto, S; Tabuchi, T; Kuranaga, T; Balogun, EO; Honma, T; Tanaka, A; Harada, S; Nara, T; Kita, K; Inoue, M

> <Link to Ligand in BindingDB>
http://www.bindingdb.org/bind/chemsearch/marvin/MolStructure.jsp?monomerid=50211942

> <Link to Ligand-Target Pair in BindingDB>
http://www.bindingdb.org/jsp/dbsearch/PrimarySearch_ki.jsp?energyterm=kJ/mole&tag=r21&monomerid=50211942&enzyme=Dihydroorotate+dehydrogenase&column=ki&startPg=0&Increment=50&submit=Search

> <PubChem CID>
134149443

> <PubChem SID>
104088020

$$$$

  Mrv2115 07222212352D          

 34 37  0  0  0  0            999 V2000
   -1.3222   -2.5366    0.0000 C   0  0  0  0  0  0  0  0  0  0  0  0
   -0.6078   -2.9491    0.0000 C   0  0  0  0  0  0  0  0  0  0  0  0
   -0.6078   -3.7741    0.0000 C   0  0  0  0  0  0  0  0  0  0  0  0
    0.0597   -4.2590    0.0000 N   0  0  0  0  0  0  0  0  0  0  0  0
   -0.1953   -5.0437    0.0000 N   0  0  0  0  0  0  0  0  0  0  0  0
    0.2897   -5.7111    0.0000 C   0  0  0  0  0  0  0  0  0  0  0  0
    1.1101   -5.6249    0.0000 C   0  0  0  0  0  0  0  0  0  0  0  0
    1.5951   -6.2923    0.0000 C   0  0  0  0  0  0  0  0  0  0  0  0
    2.4155   -6.2061    0.0000 O   0  0  0  0  0  0  0  0  0  0  0  0
    2.7511   -5.4524    0.0000 C   0  0  0  0  0  0  0  0  0  0  0  0
    2.2662   -4.7849    0.0000 C   0  0  0  0  0  0  0  0  0  0  0  0
    3.5716   -5.3661    0.0000 C   0  0  0  0  0  0  0  0  0  0  0  0
    3.9071   -4.6125    0.0000 C   0  0  0  0  0  0  0  0  0  0  0  0
    4.7276   -4.5262    0.0000 C   0  0  0  0  0  0  0  0  0  0  0  0
    5.2125   -5.1937    0.0000 C   0  0  0  0  0  0  0  0  0  0  0  0
    4.8770   -5.9473    0.0000 C   0  0  0  0  0  0  0  0  0  0  0  0
    4.0565   -6.0336    0.0000 C   0  0  0  0  0  0  0  0  0  0  0  0
    1.2595   -7.0460    0.0000 C   0  0  0  0  0  0  0  0  0  0  0  0
    1.7444   -7.7134    0.0000 C   0  0  0  0  0  0  0  0  0  0  0  0
    1.4089   -8.4671    0.0000 O   0  0  0  0  0  0  0  0  0  0  0  0
    2.5649   -7.6272    0.0000 N   0  0  0  0  0  0  0  0  0  0  0  0
    3.0498   -8.2946    0.0000 C   0  0  0  0  0  0  0  0  0  0  0  0
    3.8748   -8.2946    0.0000 C   0  0  0  0  0  0  0  0  0  0  0  0
    4.1298   -9.0792    0.0000 C   0  0  0  0  0  0  0  0  0  0  0  0
    3.4623   -9.5642    0.0000 N   0  0  0  0  0  0  0  0  0  0  0  0
    2.7949   -9.0792    0.0000 N   0  0  0  0  0  0  0  0  0  0  0  0
    2.0103   -9.3342    0.0000 C   0  0  0  0  0  0  0  0  0  0  0  0
    0.4390   -7.1322    0.0000 C   0  0  0  0  0  0  0  0  0  0  0  0
   -0.0459   -6.4648    0.0000 C   0  0  0  0  0  0  0  0  0  0  0  0
   -0.8664   -6.5510    0.0000 F   0  0  0  0  0  0  0  0  0  0  0  0
   -1.0203   -5.0437    0.0000 C   0  0  0  0  0  0  0  0  0  0  0  0
   -1.5052   -5.7111    0.0000 O   0  0  0  0  0  0  0  0  0  0  0  0
   -1.2752   -4.2590    0.0000 N   0  0  0  0  0  0  0  0  0  0  0  0
   -2.0598   -4.0041    0.0000 C   0  0  0  0  0  0  0  0  0  0  0  0
  1  2  1  0  0  0  0
  2  3  1  0  0  0  0
  3  4  4  0  0  0  0
  4  5  4  0  0  0  0
  5  6  1  0  0  0  0
  6  7  4  0  0  0  0
  7  8  4  0  0  0  0
  8  9  1  0  0  0  0
  9 10  1  0  0  0  0
 10 11  1  0  0  0  0
 10 12  1  0  0  0  0
 12 13  1  0  0  0  0
 13 14  1  0  0  0  0
 14 15  1  0  0  0  0
 15 16  1  0  0  0  0
 16 17  1  0  0  0  0
 12 17  1  0  0  0  0
  8 18  4  0  0  0  0
 18 19  1  0  0  0  0
 19 20  2  0  0  0  0
 19 21  1  0  0  0  0
 21 22  1  0  0  0  0
 22 23  4  0  0  0  0
 23 24  4  0  0  0  0
 24 25  4  0  0  0  0
 25 26  4  0  0  0  0
 22 26  4  0  0  0  0
 26 27  1  0  0  0  0
 18 28  4  0  0  0  0
 28 29  4  0  0  0  0
  6 29  4  0  0  0  0
 29 30  1  0  0  0  0
  5 31  4  0  0  0  0
 31 32  2  0  0  0  0
 31 33  4  0  0  0  0
  3 33  4  0  0  0  0
 33 34  1  0  0  0  0
M  END
> <IC50(uM)>
0.07

> <Outcome>
1.0

> <BindingDB ID>
1098816; 972662

> <BindingDB MonomerID>
470540

> <BindingDB Ligand Name>
2-[(1S)-1-cyclohexylethoxy]-4-(3-ethyl-4-methyl-5-oxo-4,5-dihydro-1H-1,2,4-triazol-1-yl)-5-fluoro-N-(1-methyl-1H-pyrazol-5-yl)benzamide::US10815215, Example 200::US11130745, Example 200; 2-[(1S)-1-cyclohexylethoxy]-4-(3-ethyl-4-methyl-5-oxo-4,5-dihydro-1H-1,2,4-triazol-1-yl)-5-fluoro-N-(1-methyl-1H-pyrazol-5-yl)benzamide::US10815215, Example 200

> <Curation/DataSource>
US Patent

> <Article DOI>
?

> <PMID>
?

> <Patent Number>
US11130745; US10815215

> <Authors>
Gradl, SN; Nguyen, D; Eis, K; Gunther, J; Stellfeld, T; Janzer, A; Christian, S; Muller, T; Sheikh, SE; Sykes, DB; Ferrara, SJ; Krober, M; Merz, C; Niehues, M; Schafer, M; Zimmermann, K; Nising, CF; Gradl, SN; Nguyen, D; Eis, K; Gunther, J; Stellfeld, T; Janzer, A; Christian, S; Muller, T; Sheikh, SE; Zhou, HJ; Zhao, C; Sykes, DB; Ferrara, SJ; Liu, K; Krober, M; Merz, C; Niehues, M; Schafer, M; Zimmermann, K; Nising, CF

> <Link to Ligand in BindingDB>
http://www.bindingdb.org/bind/chemsearch/marvin/MolStructure.jsp?monomerid=470540

> <Link to Ligand-Target Pair in BindingDB>
http://www.bindingdb.org/jsp/dbsearch/PrimarySearch_ki.jsp?energyterm=kJ/mole&tag=r21&monomerid=470540&enzyme=Dihydroorotate+dehydrogenase&column=ki&startPg=0&Increment=50&submit=Search

> <PubChem CID>
134470344

> <PubChem SID>
441609716

$$$$

  Mrv2115 07222212352D          

 25 28  0  0  0  0            999 V2000
    3.9934    2.4750    0.0000 O   0  0  0  0  0  0  0  0  0  0  0  0
    3.2789    2.0625    0.0000 C   0  0  0  0  0  0  0  0  0  0  0  0
    2.5645    2.4750    0.0000 O   0  0  0  0  0  0  0  0  0  0  0  0
    3.2789    1.2375    0.0000 C   0  0  0  0  0  0  0  0  0  0  0  0
    3.9934    0.8250    0.0000 C   0  0  0  0  0  0  0  0  0  0  0  0
    3.9934    0.0000    0.0000 C   0  0  0  0  0  0  0  0  0  0  0  0
    3.2789   -0.4125    0.0000 C   0  0  0  0  0  0  0  0  0  0  0  0
    2.5645    0.0000    0.0000 C   0  0  0  0  0  0  0  0  0  0  0  0
    1.7798   -0.2549    0.0000 N   0  0  0  0  0  0  0  0  0  0  0  0
    1.2949    0.4125    0.0000 C   0  0  0  0  0  0  0  0  0  0  0  0
    0.4699    0.4125    0.0000 C   0  0  0  0  0  0  0  0  0  0  0  0
    0.0574   -0.3020    0.0000 C   0  0  0  0  0  0  0  0  0  0  0  0
   -0.7676   -0.3020    0.0000 C   0  0  0  0  0  0  0  0  0  0  0  0
   -1.1801    0.4125    0.0000 C   0  0  0  0  0  0  0  0  0  0  0  0
   -2.0051    0.4125    0.0000 C   0  0  0  0  0  0  0  0  0  0  0  0
   -2.4176   -0.3020    0.0000 C   0  0  0  0  0  0  0  0  0  0  0  0
   -3.2426   -0.3020    0.0000 C   0  0  0  0  0  0  0  0  0  0  0  0
   -3.6551    0.4125    0.0000 C   0  0  0  0  0  0  0  0  0  0  0  0
   -3.2426    1.1270    0.0000 C   0  0  0  0  0  0  0  0  0  0  0  0
   -3.6551    1.8414    0.0000 F   0  0  0  0  0  0  0  0  0  0  0  0
   -2.4176    1.1270    0.0000 C   0  0  0  0  0  0  0  0  0  0  0  0
   -0.7676    1.1270    0.0000 C   0  0  0  0  0  0  0  0  0  0  0  0
    0.0574    1.1270    0.0000 C   0  0  0  0  0  0  0  0  0  0  0  0
    1.7798    1.0799    0.0000 N   0  0  0  0  0  0  0  0  0  0  0  0
    2.5645    0.8250    0.0000 C   0  0  0  0  0  0  0  0  0  0  0  0
  1  2  2  0  0  0  0
  2  3  1  0  0  0  0
  2  4  1  0  0  0  0
  4  5  4  0  0  0  0
  5  6  4  0  0  0  0
  6  7  4  0  0  0  0
  7  8  4  0  0  0  0
  8  9  4  0  0  0  0
  9 10  4  0  0  0  0
 10 11  1  0  0  0  0
 11 12  4  0  0  0  0
 12 13  4  0  0  0  0
 13 14  4  0  0  0  0
 14 15  1  0  0  0  0
 15 16  4  0  0  0  0
 16 17  4  0  0  0  0
 17 18  4  0  0  0  0
 18 19  4  0  0  0  0
 19 20  1  0  0  0  0
 19 21  4  0  0  0  0
 15 21  4  0  0  0  0
 14 22  4  0  0  0  0
 22 23  4  0  0  0  0
 11 23  4  0  0  0  0
 10 24  4  0  0  0  0
 24 25  4  0  0  0  0
  4 25  4  0  0  0  0
  8 25  4  0  0  0  0
M  STY  1   1 DAT
M  SAL   1  1   9
M  SDT   1 MRV_IMPLICIT_H                                        
M  SDD   1     0.5304   -0.4125    DR    ALL  0       0  
M  SED   1 IMPL_H1
M  END
> <IC50(uM)>
3.79

> <Outcome>
0.0

> <BindingDB ID>
297751

> <BindingDB MonomerID>
155407

> <BindingDB Ligand Name>
US9006454, I17

> <Curation/DataSource>
US Patent

> <Article DOI>
?

> <PMID>
?

> <Patent Number>
US9006454

> <Authors>
Thunuguntla, SS; Subramanya, H; Kunnam, SR; Sanivaru Vijay, SR; Bingi, C; Kusanur, R; Schwarz, M; Arlt, M

> <Link to Ligand in BindingDB>
http://www.bindingdb.org/bind/chemsearch/marvin/MolStructure.jsp?monomerid=155407

> <Link to Ligand-Target Pair in BindingDB>
http://www.bindingdb.org/jsp/dbsearch/PrimarySearch_ki.jsp?energyterm=kJ/mole&tag=r21&monomerid=155407&enzyme=Dihydroorotate+dehydrogenase&column=ki&startPg=0&Increment=50&submit=Search

> <PubChem CID>
46945987

> <PubChem SID>
253658344

$$$$

  Mrv2115 07222212352D          

 38 40  0  0  0  0            999 V2000
    0.7145   -3.7125    0.0000 C   0  0  0  0  0  0  0  0  0  0  0  0
    1.4289   -4.1250    0.0000 C   0  0  0  0  0  0  0  0  0  0  0  0
    1.4289   -4.9500    0.0000 N   0  0  0  0  0  0  0  0  0  0  0  0
    0.7615   -5.4349    0.0000 C   0  0  0  0  0  0  0  0  0  0  0  0
   -0.0231   -5.1800    0.0000 C   0  0  0  0  0  0  0  0  0  0  0  0
   -0.1946   -4.3730    0.0000 O   0  0  0  0  0  0  0  0  0  0  0  0
   -0.6362   -5.7320    0.0000 N   0  0  0  0  0  0  0  0  0  0  0  0
   -1.4208   -5.4771    0.0000 C   0  0  0  0  0  0  0  0  0  0  0  0
   -0.4647   -6.5390    0.0000 C   0  0  0  0  0  0  0  0  0  0  0  0
    1.0164   -6.2195    0.0000 N   0  0  0  0  0  0  0  0  0  0  0  0
    1.8414   -6.2195    0.0000 N   0  0  0  0  0  0  0  0  0  0  0  0
    2.3264   -6.8870    0.0000 C   0  0  0  0  0  0  0  0  0  0  0  0
    3.1468   -6.8007    0.0000 C   0  0  0  0  0  0  0  0  0  0  0  0
    3.6318   -7.4682    0.0000 C   0  0  0  0  0  0  0  0  0  0  0  0
    4.4522   -7.3820    0.0000 O   0  0  0  0  0  0  0  0  0  0  0  0
    4.7878   -6.6283    0.0000 C   0  0  0  0  0  0  0  0  0  0  0  0
    4.3029   -5.9608    0.0000 C   0  0  0  0  0  0  0  0  0  0  0  0
    5.6083   -6.5420    0.0000 C   0  0  0  0  0  0  0  0  0  0  0  0
    5.6945   -7.3625    0.0000 F   0  0  0  0  0  0  0  0  0  0  0  0
    5.5221   -5.7216    0.0000 F   0  0  0  0  0  0  0  0  0  0  0  0
    6.4288   -6.4558    0.0000 F   0  0  0  0  0  0  0  0  0  0  0  0
    3.2962   -8.2219    0.0000 C   0  0  0  0  0  0  0  0  0  0  0  0
    3.7811   -8.8893    0.0000 C   0  0  0  0  0  0  0  0  0  0  0  0
    3.4456   -9.6430    0.0000 O   0  0  0  0  0  0  0  0  0  0  0  0
    4.6016   -8.8031    0.0000 N   0  0  0  0  0  0  0  0  0  0  0  0
    5.0865   -9.4705    0.0000 C   0  0  0  0  0  0  0  0  0  0  0  0
    5.9070   -9.3843    0.0000 C   0  0  0  0  0  0  0  0  0  0  0  0
    6.2426   -8.6306    0.0000 F   0  0  0  0  0  0  0  0  0  0  0  0
    6.3919  -10.0517    0.0000 C   0  0  0  0  0  0  0  0  0  0  0  0
    6.0564  -10.8054    0.0000 C   0  0  0  0  0  0  0  0  0  0  0  0
    5.2359  -10.8916    0.0000 C   0  0  0  0  0  0  0  0  0  0  0  0
    4.7510  -10.2242    0.0000 C   0  0  0  0  0  0  0  0  0  0  0  0
    3.9305  -10.3104    0.0000 F   0  0  0  0  0  0  0  0  0  0  0  0
    2.4757   -8.3081    0.0000 C   0  0  0  0  0  0  0  0  0  0  0  0
    1.9908   -7.6407    0.0000 C   0  0  0  0  0  0  0  0  0  0  0  0
    1.1703   -7.7269    0.0000 F   0  0  0  0  0  0  0  0  0  0  0  0
    2.0964   -5.4349    0.0000 C   0  0  0  0  0  0  0  0  0  0  0  0
    2.8810   -5.1800    0.0000 O   0  0  0  0  0  0  0  0  0  0  0  0
  1  2  1  0  0  0  0
  2  3  1  0  0  0  0
  3  4  4  0  0  0  0
  4  5  1  0  0  0  0
  5  6  2  0  0  0  0
  5  7  1  0  0  0  0
  7  8  1  0  0  0  0
  7  9  1  0  0  0  0
  4 10  4  0  0  0  0
 10 11  4  0  0  0  0
 11 12  1  0  0  0  0
 12 13  4  0  0  0  0
 13 14  4  0  0  0  0
 14 15  1  0  0  0  0
 15 16  1  0  0  0  0
 16 17  1  0  0  0  0
 16 18  1  0  0  0  0
 18 19  1  0  0  0  0
 18 20  1  0  0  0  0
 18 21  1  0  0  0  0
 14 22  4  0  0  0  0
 22 23  1  0  0  0  0
 23 24  2  0  0  0  0
 23 25  1  0  0  0  0
 25 26  1  0  0  0  0
 26 27  4  0  0  0  0
 27 28  1  0  0  0  0
 27 29  4  0  0  0  0
 29 30  4  0  0  0  0
 30 31  4  0  0  0  0
 31 32  4  0  0  0  0
 26 32  4  0  0  0  0
 32 33  1  0  0  0  0
 22 34  4  0  0  0  0
 34 35  4  0  0  0  0
 12 35  4  0  0  0  0
 35 36  1  0  0  0  0
 11 37  4  0  0  0  0
  3 37  4  0  0  0  0
 37 38  2  0  0  0  0
M  END
> <IC50(uM)>
1.5

> <Outcome>
0.0

> <BindingDB ID>
1098848; 972694

> <BindingDB MonomerID>
470572

> <BindingDB Ligand Name>
1-(4-[(2,6-difluorophenyl)carbamoyl]-2-fluoro-5-{[(2S)-1,1,1-trifluoropropan-2-yl]oxy}phenyl)-4-ethyl-N,N-dimethyl-5-oxo-4,5-dihydro-1H-1,2,4-triazole-3-carboxamide::US10815215, Example 232::US11130745, Example 232; 1-(4-[(2,6-difluorophenyl)carbamoyl]-2-fluoro-5-{[(2S)-1,1,1-trifluoropropan-2-yl]oxy}phenyl)-4-ethyl-N,N-dimethyl-5-oxo-4,5-dihydro-1H-1,2,4-triazole-3-carboxamide::US10815215, Example 232

> <Curation/DataSource>
US Patent

> <Article DOI>
?

> <PMID>
?

> <Patent Number>
US11130745; US10815215

> <Authors>
Gradl, SN; Nguyen, D; Eis, K; Gunther, J; Stellfeld, T; Janzer, A; Christian, S; Muller, T; Sheikh, SE; Sykes, DB; Ferrara, SJ; Krober, M; Merz, C; Niehues, M; Schafer, M; Zimmermann, K; Nising, CF; Gradl, SN; Nguyen, D; Eis, K; Gunther, J; Stellfeld, T; Janzer, A; Christian, S; Muller, T; Sheikh, SE; Zhou, HJ; Zhao, C; Sykes, DB; Ferrara, SJ; Liu, K; Krober, M; Merz, C; Niehues, M; Schafer, M; Zimmermann, K; Nising, CF

> <Link to Ligand in BindingDB>
http://www.bindingdb.org/bind/chemsearch/marvin/MolStructure.jsp?monomerid=470572

> <Link to Ligand-Target Pair in BindingDB>
http://www.bindingdb.org/jsp/dbsearch/PrimarySearch_ki.jsp?energyterm=kJ/mole&tag=r21&monomerid=470572&enzyme=Dihydroorotate+dehydrogenase&column=ki&startPg=0&Increment=50&submit=Search

> <PubChem CID>
134470151

> <PubChem SID>
441609748

$$$$

  Mrv2115 07222212352D          

 40 42  0  0  0  0            999 V2000
   -0.7145   -3.7125    0.0000 C   0  0  0  0  0  0  0  0  0  0  0  0
    0.0000   -4.1250    0.0000 C   0  0  0  0  0  0  0  0  0  0  0  0
    0.0000   -4.9500    0.0000 N   0  0  0  0  0  0  0  0  0  0  0  0
   -0.6674   -5.4349    0.0000 C   0  0  0  0  0  0  0  0  0  0  0  0
   -1.4521   -5.1800    0.0000 C   0  0  0  0  0  0  0  0  0  0  0  0
   -1.6236   -4.3730    0.0000 O   0  0  0  0  0  0  0  0  0  0  0  0
   -2.0652   -5.7320    0.0000 C   0  0  0  0  0  0  0  0  0  0  0  0
   -2.6782   -6.2840    0.0000 F   0  0  0  0  0  0  0  0  0  0  0  0
   -1.5131   -6.3451    0.0000 F   0  0  0  0  0  0  0  0  0  0  0  0
   -2.6172   -5.1189    0.0000 F   0  0  0  0  0  0  0  0  0  0  0  0
   -0.4125   -6.2195    0.0000 N   0  0  0  0  0  0  0  0  0  0  0  0
    0.4125   -6.2195    0.0000 N   0  0  0  0  0  0  0  0  0  0  0  0
    0.8974   -6.8870    0.0000 C   0  0  0  0  0  0  0  0  0  0  0  0
    1.7179   -6.8007    0.0000 C   0  0  0  0  0  0  0  0  0  0  0  0
    2.2028   -7.4682    0.0000 C   0  0  0  0  0  0  0  0  0  0  0  0
    3.0233   -7.3820    0.0000 O   0  0  0  0  0  0  0  0  0  0  0  0
    3.3589   -6.6283    0.0000 C   0  0  0  0  0  0  0  0  0  0  0  0
    2.8739   -5.9608    0.0000 C   0  0  0  0  0  0  0  0  0  0  0  0
    4.1793   -6.5420    0.0000 C   0  0  0  0  0  0  0  0  0  0  0  0
    4.2656   -7.3625    0.0000 F   0  0  0  0  0  0  0  0  0  0  0  0
    4.0931   -5.7216    0.0000 F   0  0  0  0  0  0  0  0  0  0  0  0
    4.9998   -6.4558    0.0000 F   0  0  0  0  0  0  0  0  0  0  0  0
    1.8673   -8.2219    0.0000 C   0  0  0  0  0  0  0  0  0  0  0  0
    2.3522   -8.8893    0.0000 C   0  0  0  0  0  0  0  0  0  0  0  0
    3.1727   -8.8031    0.0000 O   0  0  0  0  0  0  0  0  0  0  0  0
    2.0166   -9.6430    0.0000 N   0  0  0  0  0  0  0  0  0  0  0  0
    2.5016  -10.3104    0.0000 C   0  0  0  0  0  0  0  0  0  0  0  0
    3.3220  -10.2242    0.0000 C   0  0  0  0  0  0  0  0  0  0  0  0
    3.6576   -9.4705    0.0000 C   0  0  0  0  0  0  0  0  0  0  0  0
    3.8070  -10.8916    0.0000 C   0  0  0  0  0  0  0  0  0  0  0  0
    3.4714  -11.6453    0.0000 C   0  0  0  0  0  0  0  0  0  0  0  0
    2.6509  -11.7315    0.0000 N   0  0  0  0  0  0  0  0  0  0  0  0
    2.1660  -11.0641    0.0000 C   0  0  0  0  0  0  0  0  0  0  0  0
    1.3455  -11.1503    0.0000 O   0  0  0  0  0  0  0  0  0  0  0  0
    0.8606  -10.4829    0.0000 C   0  0  0  0  0  0  0  0  0  0  0  0
    1.0468   -8.3081    0.0000 C   0  0  0  0  0  0  0  0  0  0  0  0
    0.5619   -7.6407    0.0000 C   0  0  0  0  0  0  0  0  0  0  0  0
   -0.2586   -7.7269    0.0000 F   0  0  0  0  0  0  0  0  0  0  0  0
    0.6674   -5.4349    0.0000 C   0  0  0  0  0  0  0  0  0  0  0  0
    1.4521   -5.1800    0.0000 O   0  0  0  0  0  0  0  0  0  0  0  0
  1  2  1  0  0  0  0
  2  3  1  0  0  0  0
  3  4  4  0  0  0  0
  4  5  1  0  0  0  0
  5  6  1  0  0  0  0
  5  7  1  0  0  0  0
  7  8  1  0  0  0  0
  7  9  1  0  0  0  0
  7 10  1  0  0  0  0
  4 11  4  0  0  0  0
 11 12  4  0  0  0  0
 12 13  1  0  0  0  0
 13 14  4  0  0  0  0
 14 15  4  0  0  0  0
 15 16  1  0  0  0  0
 16 17  1  0  0  0  0
 17 18  1  0  0  0  0
 17 19  1  0  0  0  0
 19 20  1  0  0  0  0
 19 21  1  0  0  0  0
 19 22  1  0  0  0  0
 15 23  4  0  0  0  0
 23 24  1  0  0  0  0
 24 25  2  0  0  0  0
 24 26  1  0  0  0  0
 26 27  1  0  0  0  0
 27 28  4  0  0  0  0
 28 29  1  0  0  0  0
 28 30  4  0  0  0  0
 30 31  4  0  0  0  0
 31 32  4  0  0  0  0
 32 33  4  0  0  0  0
 27 33  4  0  0  0  0
 33 34  1  0  0  0  0
 34 35  1  0  0  0  0
 23 36  4  0  0  0  0
 36 37  4  0  0  0  0
 13 37  4  0  0  0  0
 37 38  1  0  0  0  0
 12 39  4  0  0  0  0
  3 39  4  0  0  0  0
 39 40  2  0  0  0  0
M  END
> <IC50(uM)>
0.17

> <Outcome>
1.0

> <BindingDB ID>
1098851; 972697

> <BindingDB MonomerID>
470575

> <BindingDB Ligand Name>
4-{4-ethyl-5-oxo-3-[(1S)-2,2,2-trifluoro-1-hydroxyethyl]-4,5-dihydro-1H-1,2,4-triazol-1-yl}-5-fluoro-N-(2-methoxy-4-methylpyridin-3-yl)-2-{[(2S)-1,1,1-trifluoropropan-2-yl]oxy}benzamide (Mixture of Stereoisomers)::US10815215, Example 235::US11130745, Example 235; 4-{4-ethyl-5-oxo-3-[(1S)-2,2,2-trifluoro-1-hydroxyethyl]-4,5-dihydro-1H-1,2,4-triazol-1-yl}-5-fluoro-N-(2-methoxy-4-methylpyridin-3-yl)-2-{[(2S)-1,1,1-trifluoropropan-2-yl]oxy}benzamide (Mixture of Stereoisomers)::US10815215, Example 235

> <Curation/DataSource>
US Patent

> <Article DOI>
?

> <PMID>
?

> <Patent Number>
US11130745; US10815215

> <Authors>
Gradl, SN; Nguyen, D; Eis, K; Gunther, J; Stellfeld, T; Janzer, A; Christian, S; Muller, T; Sheikh, SE; Sykes, DB; Ferrara, SJ; Krober, M; Merz, C; Niehues, M; Schafer, M; Zimmermann, K; Nising, CF; Gradl, SN; Nguyen, D; Eis, K; Gunther, J; Stellfeld, T; Janzer, A; Christian, S; Muller, T; Sheikh, SE; Zhou, HJ; Zhao, C; Sykes, DB; Ferrara, SJ; Liu, K; Krober, M; Merz, C; Niehues, M; Schafer, M; Zimmermann, K; Nising, CF

> <Link to Ligand in BindingDB>
http://www.bindingdb.org/bind/chemsearch/marvin/MolStructure.jsp?monomerid=470575

> <Link to Ligand-Target Pair in BindingDB>
http://www.bindingdb.org/jsp/dbsearch/PrimarySearch_ki.jsp?energyterm=kJ/mole&tag=r21&monomerid=470575&enzyme=Dihydroorotate+dehydrogenase&column=ki&startPg=0&Increment=50&submit=Search

> <PubChem CID>
134470338

> <PubChem SID>
441609751

$$$$

  Mrv2115 07222212352D          

 35 38  0  0  0  0            999 V2000
   -3.1034    2.1599    0.0000 C   0  0  0  0  0  0  0  0  0  0  0  0
   -2.6909    1.4455    0.0000 C   0  0  0  0  0  0  0  0  0  0  0  0
   -3.1034    0.7310    0.0000 O   0  0  0  0  0  0  0  0  0  0  0  0
   -2.6909    0.0165    0.0000 C   0  0  0  0  0  0  0  0  0  0  0  0
   -1.8659    0.0165    0.0000 C   0  0  0  0  0  0  0  0  0  0  0  0
   -1.4534   -0.6979    0.0000 C   0  0  0  0  0  0  0  0  0  0  0  0
   -0.6284   -0.6979    0.0000 N   0  0  0  0  0  0  0  0  0  0  0  0
   -0.1435   -1.3654    0.0000 N   0  0  0  0  0  0  0  0  0  0  0  0
    0.6411   -1.1104    0.0000 C   0  0  0  0  0  0  0  0  0  0  0  0
    0.6411   -0.2854    0.0000 N   0  0  0  0  0  0  0  0  0  0  0  0
   -0.1435   -0.0305    0.0000 C   0  0  0  0  0  0  0  0  0  0  0  0
   -0.3984    0.7541    0.0000 O   0  0  0  0  0  0  0  0  0  0  0  0
    1.3556    0.1271    0.0000 C   0  0  0  0  0  0  0  0  0  0  0  0
    2.0701   -0.2854    0.0000 C   0  0  0  0  0  0  0  0  0  0  0  0
    2.0701   -1.1104    0.0000 C   0  0  0  0  0  0  0  0  0  0  0  0
    1.3556   -1.5229    0.0000 C   0  0  0  0  0  0  0  0  0  0  0  0
   -1.8659   -1.4124    0.0000 C   0  0  0  0  0  0  0  0  0  0  0  0
   -1.4534   -2.1269    0.0000 F   0  0  0  0  0  0  0  0  0  0  0  0
   -2.6909   -1.4124    0.0000 C   0  0  0  0  0  0  0  0  0  0  0  0
   -3.1034   -0.6979    0.0000 C   0  0  0  0  0  0  0  0  0  0  0  0
   -3.9284   -0.6979    0.0000 C   0  0  0  0  0  0  0  0  0  0  0  0
   -4.3409    0.0165    0.0000 O   0  0  0  0  0  0  0  0  0  0  0  0
   -4.3409   -1.4124    0.0000 N   0  0  0  0  0  0  0  0  0  0  0  0
   -5.1659   -1.4124    0.0000 C   0  0  0  0  0  0  0  0  0  0  0  0
   -5.5784   -2.1269    0.0000 C   0  0  0  0  0  0  0  0  0  0  0  0
   -5.1659   -2.8414    0.0000 F   0  0  0  0  0  0  0  0  0  0  0  0
   -6.4034   -2.1269    0.0000 C   0  0  0  0  0  0  0  0  0  0  0  0
   -6.8159   -1.4124    0.0000 C   0  0  0  0  0  0  0  0  0  0  0  0
   -6.4034   -0.6979    0.0000 C   0  0  0  0  0  0  0  0  0  0  0  0
   -5.5784   -0.6979    0.0000 C   0  0  0  0  0  0  0  0  0  0  0  0
   -5.1659    0.0165    0.0000 F   0  0  0  0  0  0  0  0  0  0  0  0
   -1.8659    1.4455    0.0000 C   0  0  0  0  0  0  0  0  0  0  0  0
   -1.8659    0.6205    0.0000 F   0  0  0  0  0  0  0  0  0  0  0  0
   -1.8659    2.2705    0.0000 F   0  0  0  0  0  0  0  0  0  0  0  0
   -1.0409    1.4455    0.0000 F   0  0  0  0  0  0  0  0  0  0  0  0
  1  2  1  0  0  0  0
  2  3  1  0  0  0  0
  3  4  1  0  0  0  0
  4  5  4  0  0  0  0
  5  6  4  0  0  0  0
  6  7  1  0  0  0  0
  7  8  4  0  0  0  0
  8  9  4  0  0  0  0
  9 10  4  0  0  0  0
 10 11  4  0  0  0  0
  7 11  4  0  0  0  0
 11 12  2  0  0  0  0
 10 13  1  0  0  0  0
 13 14  1  0  0  0  0
 14 15  1  0  0  0  0
 15 16  1  0  0  0  0
  9 16  1  0  0  0  0
  6 17  4  0  0  0  0
 17 18  1  0  0  0  0
 17 19  4  0  0  0  0
 19 20  4  0  0  0  0
  4 20  4  0  0  0  0
 20 21  1  0  0  0  0
 21 22  2  0  0  0  0
 21 23  1  0  0  0  0
 23 24  1  0  0  0  0
 24 25  4  0  0  0  0
 25 26  1  0  0  0  0
 25 27  4  0  0  0  0
 27 28  4  0  0  0  0
 28 29  4  0  0  0  0
 29 30  4  0  0  0  0
 24 30  4  0  0  0  0
 30 31  1  0  0  0  0
  2 32  1  0  0  0  0
 32 33  1  0  0  0  0
 32 34  1  0  0  0  0
 32 35  1  0  0  0  0
M  END
> <IC50(uM)>
0.057400000000000014

> <Outcome>
1.0

> <BindingDB ID>
1020408; 1020661; 1020409

> <BindingDB MonomerID>
490361; 490590

> <BindingDB Ligand Name>
N-(2,6-difluorophenyl)-5-fluoro-4-(3-oxo-5,6,7,8-tetrahydro[1,2,4]triazolo[4,3-a]pyridin-2(3H)-yl)-2-{[(2S)-1,1,1-trifluoropropan-2-yl]oxy}benzamide::US10968216, Example 29; N-(2,6-difluorophenyl)-5-fluoro-4-(3-oxo-5,6,7,8-tetrahydro[1,2,4]triazolo[4,3-a]pyridin-2(3H)-yl)-2-{[(2R)-1,1,1-trifluoropropan-2-yl]oxy}benzamide::US10968216, Example 258

> <Curation/DataSource>
US Patent

> <Article DOI>
?

> <PMID>
?

> <Patent Number>
US10968216

> <Authors>
Gradl, SN; Nguyen, D; Eis, K; Gunther, J; Stellfeld, T; Janzer, A; Christian, S; Mueller, T; Sheikh, SE; Zhou, HJ; Zhao, C; Sykes, DB; Ferrara, SJ; Liu, K; Herbert, SA; Merz, C; Niehues, M; Nising, CF; Schafer, M; Zimmermann, K; Knablein, J; Thede, K; Faupel, T

> <Link to Ligand in BindingDB>
http://www.bindingdb.org/bind/chemsearch/marvin/MolStructure.jsp?monomerid=490361; http://www.bindingdb.org/bind/chemsearch/marvin/MolStructure.jsp?monomerid=490590

> <Link to Ligand-Target Pair in BindingDB>
http://www.bindingdb.org/jsp/dbsearch/PrimarySearch_ki.jsp?energyterm=kJ/mole&tag=r21&monomerid=490361&enzyme=Dihydroorotate+dehydrogenase&column=ki&startPg=0&Increment=50&submit=Search; http://www.bindingdb.org/jsp/dbsearch/PrimarySearch_ki.jsp?energyterm=kJ/mole&tag=r21&monomerid=490590&enzyme=Dihydroorotate+dehydrogenase&column=ki&startPg=0&Increment=50&submit=Search

> <PubChem CID>
134473929; 134474179

> <PubChem SID>
447117088; 447117316

$$$$

  Mrv2115 07222212352D          

 36 39  0  0  0  0            999 V2000
   -3.1034    2.1599    0.0000 C   0  0  0  0  0  0  0  0  0  0  0  0
   -2.6909    1.4455    0.0000 C   0  0  0  0  0  0  0  0  0  0  0  0
   -3.1034    0.7310    0.0000 O   0  0  0  0  0  0  0  0  0  0  0  0
   -2.6909    0.0165    0.0000 C   0  0  0  0  0  0  0  0  0  0  0  0
   -1.8659    0.0165    0.0000 C   0  0  0  0  0  0  0  0  0  0  0  0
   -1.4534   -0.6979    0.0000 C   0  0  0  0  0  0  0  0  0  0  0  0
   -0.6284   -0.6979    0.0000 N   0  0  0  0  0  0  0  0  0  0  0  0
   -0.1435   -1.3654    0.0000 N   0  0  0  0  0  0  0  0  0  0  0  0
    0.6411   -1.1104    0.0000 C   0  0  0  0  0  0  0  0  0  0  0  0
    0.6411   -0.2854    0.0000 N   0  0  0  0  0  0  0  0  0  0  0  0
   -0.1435   -0.0305    0.0000 C   0  0  0  0  0  0  0  0  0  0  0  0
   -0.3984    0.7541    0.0000 O   0  0  0  0  0  0  0  0  0  0  0  0
    1.3556    0.1271    0.0000 C   0  0  0  0  0  0  0  0  0  0  0  0
    2.0701   -0.2854    0.0000 C   0  0  0  0  0  0  0  0  0  0  0  0
    2.0701   -1.1104    0.0000 C   0  0  0  0  0  0  0  0  0  0  0  0
    1.3556   -1.5229    0.0000 C   0  0  0  0  0  0  0  0  0  0  0  0
   -1.8659   -1.4124    0.0000 C   0  0  0  0  0  0  0  0  0  0  0  0
   -1.4534   -2.1269    0.0000 F   0  0  0  0  0  0  0  0  0  0  0  0
   -2.6909   -1.4124    0.0000 C   0  0  0  0  0  0  0  0  0  0  0  0
   -3.1034   -0.6979    0.0000 C   0  0  0  0  0  0  0  0  0  0  0  0
   -3.9284   -0.6979    0.0000 C   0  0  0  0  0  0  0  0  0  0  0  0
   -4.3409    0.0165    0.0000 O   0  0  0  0  0  0  0  0  0  0  0  0
   -4.3409   -1.4124    0.0000 N   0  0  0  0  0  0  0  0  0  0  0  0
   -5.1659   -1.4124    0.0000 C   0  0  0  0  0  0  0  0  0  0  0  0
   -5.5784   -2.1269    0.0000 C   0  0  0  0  0  0  0  0  0  0  0  0
   -6.4034   -2.1269    0.0000 C   0  0  0  0  0  0  0  0  0  0  0  0
   -6.8159   -1.4124    0.0000 C   0  0  0  0  0  0  0  0  0  0  0  0
   -7.6409   -1.4124    0.0000 N   0  0  0  0  0  0  0  0  0  0  0  0
   -8.0534   -2.1269    0.0000 C   0  0  0  0  0  0  0  0  0  0  0  0
   -8.0534   -0.6979    0.0000 C   0  0  0  0  0  0  0  0  0  0  0  0
   -6.4034   -0.6979    0.0000 C   0  0  0  0  0  0  0  0  0  0  0  0
   -5.5784   -0.6979    0.0000 C   0  0  0  0  0  0  0  0  0  0  0  0
   -1.8659    1.4455    0.0000 C   0  0  0  0  0  0  0  0  0  0  0  0
   -1.8659    0.6205    0.0000 F   0  0  0  0  0  0  0  0  0  0  0  0
   -1.8659    2.2705    0.0000 F   0  0  0  0  0  0  0  0  0  0  0  0
   -1.0409    1.4455    0.0000 F   0  0  0  0  0  0  0  0  0  0  0  0
  1  2  1  0  0  0  0
  2  3  1  0  0  0  0
  3  4  1  0  0  0  0
  4  5  4  0  0  0  0
  5  6  4  0  0  0  0
  6  7  1  0  0  0  0
  7  8  4  0  0  0  0
  8  9  4  0  0  0  0
  9 10  4  0  0  0  0
 10 11  4  0  0  0  0
  7 11  4  0  0  0  0
 11 12  2  0  0  0  0
 10 13  1  0  0  0  0
 13 14  1  0  0  0  0
 14 15  1  0  0  0  0
 15 16  1  0  0  0  0
  9 16  1  0  0  0  0
  6 17  4  0  0  0  0
 17 18  1  0  0  0  0
 17 19  4  0  0  0  0
 19 20  4  0  0  0  0
  4 20  4  0  0  0  0
 20 21  1  0  0  0  0
 21 22  2  0  0  0  0
 21 23  1  0  0  0  0
 23 24  1  0  0  0  0
 24 25  1  0  0  0  0
 25 26  1  0  0  0  0
 26 27  1  0  0  0  0
 27 28  1  0  0  0  0
 28 29  1  0  0  0  0
 28 30  1  0  0  0  0
 27 31  1  0  0  0  0
 31 32  1  0  0  0  0
 24 32  1  0  0  0  0
  2 33  1  0  0  0  0
 33 34  1  0  0  0  0
 33 35  1  0  0  0  0
 33 36  1  0  0  0  0
M  END
> <IC50(uM)>
6.8

> <Outcome>
0.0

> <BindingDB ID>
1020440

> <BindingDB MonomerID>
490391

> <BindingDB Ligand Name>
N-[4-(dimethylamino)cyclohexyl]-5-fluoro-4-(3-oxo-5,6,7,8-tetrahydro[1,2,4]triazolo[4,3-a]pyridin-2(3H)-yl)-2-{[(2S)-1,1,1-trifluoropropan-2-yl]oxy}benzamide::US10968216, Example 59

> <Curation/DataSource>
US Patent

> <Article DOI>
?

> <PMID>
?

> <Patent Number>
US10968216

> <Authors>
Gradl, SN; Nguyen, D; Eis, K; Gunther, J; Stellfeld, T; Janzer, A; Christian, S; Mueller, T; Sheikh, SE; Zhou, HJ; Zhao, C; Sykes, DB; Ferrara, SJ; Liu, K; Herbert, SA; Merz, C; Niehues, M; Nising, CF; Schafer, M; Zimmermann, K; Knablein, J; Thede, K; Faupel, T

> <Link to Ligand in BindingDB>
http://www.bindingdb.org/bind/chemsearch/marvin/MolStructure.jsp?monomerid=490391

> <Link to Ligand-Target Pair in BindingDB>
http://www.bindingdb.org/jsp/dbsearch/PrimarySearch_ki.jsp?energyterm=kJ/mole&tag=r21&monomerid=490391&enzyme=Dihydroorotate+dehydrogenase&column=ki&startPg=0&Increment=50&submit=Search

> <PubChem CID>
134474510

> <PubChem SID>
447117118

$$$$

  Mrv2115 07222212352D          

 30 33  0  0  0  0            999 V2000
    2.8579   -4.1250    0.0000 C   0  0  0  0  0  0  0  0  0  0  0  0
    2.1434   -3.7125    0.0000 O   0  0  0  0  0  0  0  0  0  0  0  0
    2.1434   -2.8875    0.0000 N   0  0  0  0  0  0  0  0  0  0  0  0
    1.4289   -2.4750    0.0000 C   0  0  0  0  0  0  0  0  0  0  0  0
    0.7145   -2.8875    0.0000 O   0  0  0  0  0  0  0  0  0  0  0  0
    1.4289   -1.6500    0.0000 C   0  0  0  0  0  0  0  0  0  0  0  0
    0.7145   -1.2375    0.0000 C   0  0  0  0  0  0  0  0  0  0  0  0
    0.0000   -1.6500    0.0000 C   0  0  0  0  0  0  0  0  0  0  0  0
    0.7145   -0.4125    0.0000 C   0  0  0  0  0  0  0  0  0  0  0  0
    0.0000    0.0000    0.0000 C   0  0  0  0  0  0  0  0  0  0  0  0
   -0.7145   -0.4125    0.0000 C   0  0  0  0  0  0  0  0  0  0  0  0
   -1.4289    0.0000    0.0000 C   0  0  0  0  0  0  0  0  0  0  0  0
   -1.4289    0.8250    0.0000 C   0  0  0  0  0  0  0  0  0  0  0  0
   -2.1434    1.2375    0.0000 C   0  0  0  0  0  0  0  0  0  0  0  0
   -2.8579    0.8250    0.0000 C   0  0  0  0  0  0  0  0  0  0  0  0
   -3.5724    1.2375    0.0000 C   0  0  0  0  0  0  0  0  0  0  0  0
   -3.5724    2.0625    0.0000 C   0  0  0  0  0  0  0  0  0  0  0  0
   -2.8579    2.4750    0.0000 C   0  0  0  0  0  0  0  0  0  0  0  0
   -2.1434    2.0625    0.0000 C   0  0  0  0  0  0  0  0  0  0  0  0
   -1.4289    2.4750    0.0000 F   0  0  0  0  0  0  0  0  0  0  0  0
   -0.7145    1.2375    0.0000 C   0  0  0  0  0  0  0  0  0  0  0  0
    0.0000    0.8250    0.0000 C   0  0  0  0  0  0  0  0  0  0  0  0
    1.4289    0.0000    0.0000 N   0  0  0  0  0  0  0  0  0  0  0  0
    2.1434   -0.4125    0.0000 C   0  0  0  0  0  0  0  0  0  0  0  0
    2.8579    0.0000    0.0000 C   0  0  0  0  0  0  0  0  0  0  0  0
    3.5724   -0.4125    0.0000 C   0  0  0  0  0  0  0  0  0  0  0  0
    3.5724   -1.2375    0.0000 C   0  0  0  0  0  0  0  0  0  0  0  0
    4.2868   -1.6500    0.0000 F   0  0  0  0  0  0  0  0  0  0  0  0
    2.8579   -1.6500    0.0000 C   0  0  0  0  0  0  0  0  0  0  0  0
    2.1434   -1.2375    0.0000 C   0  0  0  0  0  0  0  0  0  0  0  0
  1  2  1  0  0  0  0
  2  3  1  0  0  0  0
  3  4  1  0  0  0  0
  4  5  2  0  0  0  0
  4  6  1  0  0  0  0
  6  7  4  0  0  0  0
  7  8  1  0  0  0  0
  7  9  4  0  0  0  0
  9 10  1  0  0  0  0
 10 11  4  0  0  0  0
 11 12  4  0  0  0  0
 12 13  4  0  0  0  0
 13 14  1  0  0  0  0
 14 15  4  0  0  0  0
 15 16  4  0  0  0  0
 16 17  4  0  0  0  0
 17 18  4  0  0  0  0
 18 19  4  0  0  0  0
 14 19  4  0  0  0  0
 19 20  1  0  0  0  0
 13 21  4  0  0  0  0
 21 22  4  0  0  0  0
 10 22  4  0  0  0  0
  9 23  4  0  0  0  0
 23 24  4  0  0  0  0
 24 25  4  0  0  0  0
 25 26  4  0  0  0  0
 26 27  4  0  0  0  0
 27 28  1  0  0  0  0
 27 29  4  0  0  0  0
 29 30  4  0  0  0  0
  6 30  4  0  0  0  0
 24 30  4  0  0  0  0
M  END
> <IC50(uM)>
1.1999999999999999E-4

> <Outcome>
1.0

> <BindingDB ID>
51370198

> <BindingDB MonomerID>
50554026

> <BindingDB Ligand Name>
CHEMBL4744558

> <Curation/DataSource>
ChEMBL

> <Article DOI>
?

> <PMID>
33007394

> <Patent Number>
?

> <Authors>
DeRatt, LG; Christine Pietsch, E; Tanner, A; Shaffer, P; Jacoby, E; Wang, W; Kazmi, F; Zhang, X; Attar, RM; Edwards, JP; Kuduk, SD

> <Link to Ligand in BindingDB>
http://www.bindingdb.org/bind/chemsearch/marvin/MolStructure.jsp?monomerid=50554026

> <Link to Ligand-Target Pair in BindingDB>
http://www.bindingdb.org/jsp/dbsearch/PrimarySearch_ki.jsp?energyterm=kJ/mole&tag=r21&monomerid=50554026&enzyme=Dihydroorotate+dehydrogenase&column=ki&startPg=0&Increment=50&submit=Search

> <PubChem CID>
154702659

> <PubChem SID>
461692794

$$$$

  Mrv2115 07222212352D          

 25 28  0  0  0  0            999 V2000
    3.3523   -0.2854    0.0000 O   0  0  0  0  0  0  0  0  0  0  0  0
    3.3523   -1.1104    0.0000 C   0  0  0  0  0  0  0  0  0  0  0  0
    4.0668   -1.5229    0.0000 C   0  0  0  0  0  0  0  0  0  0  0  0
    4.7812   -1.1104    0.0000 C   0  0  0  0  0  0  0  0  0  0  0  0
    5.4957   -1.5229    0.0000 C   0  0  0  0  0  0  0  0  0  0  0  0
    5.4957   -2.3479    0.0000 C   0  0  0  0  0  0  0  0  0  0  0  0
    4.7812   -2.7604    0.0000 C   0  0  0  0  0  0  0  0  0  0  0  0
    4.0668   -2.3479    0.0000 C   0  0  0  0  0  0  0  0  0  0  0  0
    3.3523   -2.7604    0.0000 C   0  0  0  0  0  0  0  0  0  0  0  0
    3.3523   -3.5854    0.0000 O   0  0  0  0  0  0  0  0  0  0  0  0
    2.6378   -2.3479    0.0000 C   0  0  0  0  0  0  0  0  0  0  0  0
    2.6378   -1.5229    0.0000 C   0  0  0  0  0  0  0  0  0  0  0  0
    1.8532   -1.2680    0.0000 N   0  0  0  0  0  0  0  0  0  0  0  0
    1.3683   -1.9354    0.0000 N   0  0  0  0  0  0  0  0  0  0  0  0
    1.8532   -2.6029    0.0000 N   0  0  0  0  0  0  0  0  0  0  0  0
    1.5983   -3.3875    0.0000 C   0  0  0  0  0  0  0  0  0  0  0  0
    2.1503   -4.0006    0.0000 C   0  0  0  0  0  0  0  0  0  0  0  0
    1.8953   -4.7852    0.0000 C   0  0  0  0  0  0  0  0  0  0  0  0
    1.0884   -4.9567    0.0000 C   0  0  0  0  0  0  0  0  0  0  0  0
    0.5363   -4.3437    0.0000 C   0  0  0  0  0  0  0  0  0  0  0  0
    0.7913   -3.5590    0.0000 C   0  0  0  0  0  0  0  0  0  0  0  0
    0.2392   -2.9459    0.0000 C   0  0  0  0  0  0  0  0  0  0  0  0
   -0.3128   -2.3328    0.0000 F   0  0  0  0  0  0  0  0  0  0  0  0
    0.8523   -2.3939    0.0000 F   0  0  0  0  0  0  0  0  0  0  0  0
   -0.3738   -3.4980    0.0000 F   0  0  0  0  0  0  0  0  0  0  0  0
  1  2  2  0  0  0  0
  2  3  1  0  0  0  0
  3  4  4  0  0  0  0
  4  5  4  0  0  0  0
  5  6  4  0  0  0  0
  6  7  4  0  0  0  0
  7  8  4  0  0  0  0
  3  8  4  0  0  0  0
  8  9  1  0  0  0  0
  9 10  2  0  0  0  0
  9 11  1  0  0  0  0
 11 12  4  0  0  0  0
  2 12  1  0  0  0  0
 12 13  4  0  0  0  0
 13 14  4  0  0  0  0
 14 15  4  0  0  0  0
 11 15  4  0  0  0  0
 15 16  1  0  0  0  0
 16 17  4  0  0  0  0
 17 18  4  0  0  0  0
 18 19  4  0  0  0  0
 19 20  4  0  0  0  0
 20 21  4  0  0  0  0
 16 21  4  0  0  0  0
 21 22  1  0  0  0  0
 22 23  1  0  0  0  0
 22 24  1  0  0  0  0
 22 25  1  0  0  0  0
M  END
> <IC50(uM)>
1.0

> <Outcome>
1.0

> <BindingDB ID>
51338168

> <BindingDB MonomerID>
50541642

> <BindingDB Ligand Name>
CHEMBL4646751

> <Curation/DataSource>
ChEMBL

> <Article DOI>
10.1021/acs.jmedchem.0c00512

> <PMID>
32496056

> <Patent Number>
?

> <Authors>
Zuo, Z; Liu, X; Qian, X; Zeng, T; Sang, N; Liu, H; Zhou, Y; Tao, L; Zhou, X; Su, N; Yu, Y; Chen, Q; Luo, Y; Zhao, Y

> <Link to Ligand in BindingDB>
http://www.bindingdb.org/bind/chemsearch/marvin/MolStructure.jsp?monomerid=50541642

> <Link to Ligand-Target Pair in BindingDB>
http://www.bindingdb.org/jsp/dbsearch/PrimarySearch_ki.jsp?energyterm=kJ/mole&tag=r21&monomerid=50541642&enzyme=Dihydroorotate+dehydrogenase&column=ki&startPg=0&Increment=50&submit=Search

> <PubChem CID>
156021356

> <PubChem SID>
442143205

$$$$

  Mrv2115 07222212352D          

 26 29  0  0  0  0            999 V2000
    0.0000   -1.6500    0.0000 C   0  0  0  0  0  0  0  0  0  0  0  0
    0.7145   -1.2375    0.0000 C   0  0  0  0  0  0  0  0  0  0  0  0
    0.7145   -0.4125    0.0000 C   0  0  0  0  0  0  0  0  0  0  0  0
    0.0000    0.0000    0.0000 C   0  0  0  0  0  0  0  0  0  0  0  0
   -0.7145   -0.4125    0.0000 C   0  0  0  0  0  0  0  0  0  0  0  0
   -1.4289    0.0000    0.0000 C   0  0  0  0  0  0  0  0  0  0  0  0
   -1.4289    0.8250    0.0000 C   0  0  0  0  0  0  0  0  0  0  0  0
   -2.1434    1.2375    0.0000 C   0  0  0  0  0  0  0  0  0  0  0  0
   -2.8579    0.8250    0.0000 C   0  0  0  0  0  0  0  0  0  0  0  0
   -3.5724    1.2375    0.0000 C   0  0  0  0  0  0  0  0  0  0  0  0
   -3.5724    2.0625    0.0000 C   0  0  0  0  0  0  0  0  0  0  0  0
   -2.8579    2.4750    0.0000 C   0  0  0  0  0  0  0  0  0  0  0  0
   -2.1434    2.0625    0.0000 C   0  0  0  0  0  0  0  0  0  0  0  0
   -0.7145    1.2375    0.0000 C   0  0  0  0  0  0  0  0  0  0  0  0
    0.0000    0.8250    0.0000 C   0  0  0  0  0  0  0  0  0  0  0  0
    1.4289    0.0000    0.0000 N   0  0  0  0  0  0  0  0  0  0  0  0
    2.1434   -0.4125    0.0000 C   0  0  0  0  0  0  0  0  0  0  0  0
    2.8579    0.0000    0.0000 C   0  0  0  0  0  0  0  0  0  0  0  0
    3.5724   -0.4125    0.0000 C   0  0  0  0  0  0  0  0  0  0  0  0
    3.5724   -1.2375    0.0000 N   0  0  0  0  0  0  0  0  0  0  0  0
    2.8579   -1.6500    0.0000 C   0  0  0  0  0  0  0  0  0  0  0  0
    2.1434   -1.2375    0.0000 C   0  0  0  0  0  0  0  0  0  0  0  0
    1.4289   -1.6500    0.0000 C   0  0  0  0  0  0  0  0  0  0  0  0
    1.4289   -2.4750    0.0000 C   0  0  0  0  0  0  0  0  0  0  0  0
    0.7145   -2.8875    0.0000 O   0  0  0  0  0  0  0  0  0  0  0  0
    2.1434   -2.8875    0.0000 O   0  0  0  0  0  0  0  0  0  0  0  0
  1  2  1  0  0  0  0
  2  3  4  0  0  0  0
  3  4  1  0  0  0  0
  4  5  4  0  0  0  0
  5  6  4  0  0  0  0
  6  7  4  0  0  0  0
  7  8  1  0  0  0  0
  8  9  4  0  0  0  0
  9 10  4  0  0  0  0
 10 11  4  0  0  0  0
 11 12  4  0  0  0  0
 12 13  4  0  0  0  0
  8 13  4  0  0  0  0
  7 14  4  0  0  0  0
 14 15  4  0  0  0  0
  4 15  4  0  0  0  0
  3 16  4  0  0  0  0
 16 17  4  0  0  0  0
 17 18  4  0  0  0  0
 18 19  4  0  0  0  0
 19 20  4  0  0  0  0
 20 21  4  0  0  0  0
 21 22  4  0  0  0  0
 17 22  4  0  0  0  0
 22 23  4  0  0  0  0
  2 23  4  0  0  0  0
 23 24  1  0  0  0  0
 24 25  2  0  0  0  0
 24 26  1  0  0  0  0
M  END
> <IC50(uM)>
2.79

> <Outcome>
0.0

> <BindingDB ID>
51126167

> <BindingDB MonomerID>
50461854

> <BindingDB Ligand Name>
CHEMBL4228065

> <Curation/DataSource>
ChEMBL

> <Article DOI>
10.1021/acs.jmedchem.7b01862

> <PMID>
29727569

> <Patent Number>
?

> <Authors>
Madak, JT; Cuthbertson, CR; Miyata, Y; Tamura, S; Petrunak, EM; Stuckey, JA; Han, Y; He, M; Sun, D; Showalter, HD; Neamati, N

> <Link to Ligand in BindingDB>
http://www.bindingdb.org/bind/chemsearch/marvin/MolStructure.jsp?monomerid=50461854

> <Link to Ligand-Target Pair in BindingDB>
http://www.bindingdb.org/jsp/dbsearch/PrimarySearch_ki.jsp?energyterm=kJ/mole&tag=r21&monomerid=50461854&enzyme=Dihydroorotate+dehydrogenase&column=ki&startPg=0&Increment=50&submit=Search

> <PubChem CID>
145967714

> <PubChem SID>
433929119

$$$$

  Mrv2115 07222212352D          

 26 28  0  0  0  0            999 V2000
   -2.1434   11.7161    0.0000 C   0  0  0  0  0  0  0  0  0  0  0  0
   -2.1434   10.8911    0.0000 O   0  0  0  0  0  0  0  0  0  0  0  0
   -1.4289   10.4786    0.0000 C   0  0  0  0  0  0  0  0  0  0  0  0
   -0.7145   10.8911    0.0000 C   0  0  0  0  0  0  0  0  0  0  0  0
   -0.0000   10.4786    0.0000 C   0  0  0  0  0  0  0  0  0  0  0  0
   -0.0000    9.6536    0.0000 C   0  0  0  0  0  0  0  0  0  0  0  0
   -0.7145    9.2411    0.0000 C   0  0  0  0  0  0  0  0  0  0  0  0
   -0.7145    8.4161    0.0000 C   0  0  0  0  0  0  0  0  0  0  0  0
   -0.0000    8.0036    0.0000 C   0  0  0  0  0  0  0  0  0  0  0  0
   -0.0000    7.1786    0.0000 C   0  0  0  0  0  0  0  0  0  0  0  0
   -0.7145    6.7661    0.0000 C   0  0  0  0  0  0  0  0  0  0  0  0
   -0.7145    5.9411    0.0000 N   0  0  0  0  0  0  0  0  0  0  0  0
   -0.0000    5.5286    0.0000 C   0  0  0  0  0  0  0  0  0  0  0  0
    0.7145    5.9411    0.0000 O   0  0  0  0  0  0  0  0  0  0  0  0
   -0.0000    4.7036    0.0000 C   0  0  0  0  0  0  0  0  0  0  0  0
    0.6674    4.2187    0.0000 C   0  0  0  0  0  0  0  0  0  0  0  0
    1.4521    4.4736    0.0000 C   0  0  0  0  0  0  0  0  0  0  0  0
    1.6236    5.2806    0.0000 O   0  0  0  0  0  0  0  0  0  0  0  0
    2.0652    3.9216    0.0000 O   0  0  0  0  0  0  0  0  0  0  0  0
    0.4125    3.4340    0.0000 C   0  0  0  0  0  0  0  0  0  0  0  0
   -0.4125    3.4340    0.0000 C   0  0  0  0  0  0  0  0  0  0  0  0
   -0.6674    4.2187    0.0000 C   0  0  0  0  0  0  0  0  0  0  0  0
   -1.4289    7.1786    0.0000 C   0  0  0  0  0  0  0  0  0  0  0  0
   -2.1434    6.7661    0.0000 F   0  0  0  0  0  0  0  0  0  0  0  0
   -1.4289    8.0036    0.0000 C   0  0  0  0  0  0  0  0  0  0  0  0
   -1.4289    9.6536    0.0000 C   0  0  0  0  0  0  0  0  0  0  0  0
  1  2  1  0  0  0  0
  2  3  1  0  0  0  0
  3  4  4  0  0  0  0
  4  5  4  0  0  0  0
  5  6  4  0  0  0  0
  6  7  4  0  0  0  0
  7  8  1  0  0  0  0
  8  9  4  0  0  0  0
  9 10  4  0  0  0  0
 10 11  4  0  0  0  0
 11 12  1  0  0  0  0
 12 13  1  0  0  0  0
 13 14  2  0  0  0  0
 13 15  1  0  0  0  0
 15 16  2  0  0  0  0
 16 17  1  0  0  0  0
 17 18  2  0  0  0  0
 17 19  1  0  0  0  0
 16 20  1  0  0  0  0
 20 21  1  0  0  0  0
 21 22  1  0  0  0  0
 15 22  1  0  0  0  0
 11 23  4  0  0  0  0
 23 24  1  0  0  0  0
 23 25  4  0  0  0  0
  8 25  4  0  0  0  0
  7 26  4  0  0  0  0
  3 26  4  0  0  0  0
M  END
> <IC50(uM)>
0.134

> <Outcome>
1.0

> <BindingDB ID>
50319898; 29214

> <BindingDB MonomerID>
16111

> <BindingDB Ligand Name>
2-{[2-fluoro-4-(3-methoxyphenyl)phenyl]carbamoyl}cyclopent-1-ene-1-carboxylic acid::Biphenyl-4-ylcarbamoyl Cyclopentene Analog 2::CHEMBL197194

> <Curation/DataSource>
ChEMBL; Curated from the literature by BindingDB

> <Article DOI>
10.1016/j.bmcl.2005.07.053; 10.1016/j.bmcl.2005.10.011

> <PMID>
16143532; 16246558

> <Patent Number>
?

> <Authors>
Leban, J; Kralik, M; Mies, J; Gassen, M; Tentschert, K; Baumgartner, R; Leban, J; Kralik, M; Mies, J; Baumgartner, R; Gassen, M; Tasler, S

> <Link to Ligand in BindingDB>
http://www.bindingdb.org/bind/chemsearch/marvin/MolStructure.jsp?monomerid=16111

> <Link to Ligand-Target Pair in BindingDB>
http://www.bindingdb.org/jsp/dbsearch/PrimarySearch_ki.jsp?energyterm=kJ/mole&tag=r21&monomerid=16111&enzyme=Dihydroorotate+dehydrogenase&column=ki&startPg=0&Increment=50&submit=Search; http://www.bindingdb.org/jsp/dbsearch/PrimarySearch_ki.jsp?energyterm=kJ/mole&tag=r21&monomerid=16111&enzyme=Dihydroorotate+Dehydrogenase+%28DHODH%29&column=ki&startPg=0&Increment=50&submit=Search

> <PubChem CID>
9820008

> <PubChem SID>
46516370

$$$$

  Mrv2115 07222212352D          

 35 37  0  0  0  0            999 V2000
   -1.4289    8.0036    0.0000 C   0  0  0  0  0  0  0  0  0  0  0  0
   -0.7145    8.4161    0.0000 C   0  0  0  0  0  0  0  0  0  0  0  0
   -0.7145    9.2411    0.0000 C   0  0  0  0  0  0  0  0  0  0  0  0
   -0.0000    9.6536    0.0000 C   0  0  0  0  0  0  0  0  0  0  0  0
    0.7145    9.2411    0.0000 C   0  0  0  0  0  0  0  0  0  0  0  0
    0.7145    8.4161    0.0000 C   0  0  0  0  0  0  0  0  0  0  0  0
    1.4289    8.0036    0.0000 F   0  0  0  0  0  0  0  0  0  0  0  0
   -0.0000    8.0036    0.0000 C   0  0  0  0  0  0  0  0  0  0  0  0
   -0.0000    7.1786    0.0000 N   0  0  0  0  0  0  0  0  0  0  0  0
    0.7145    6.7661    0.0000 C   0  0  0  0  0  0  0  0  0  0  0  0
    1.4289    7.1786    0.0000 O   0  0  0  0  0  0  0  0  0  0  0  0
    0.7145    5.9411    0.0000 C   0  0  0  0  0  0  0  0  0  0  0  0
    1.4289    5.5286    0.0000 C   0  0  0  0  0  0  0  0  0  0  0  0
    1.4289    4.7036    0.0000 C   0  0  0  0  0  0  0  0  0  0  0  0
    2.1434    4.2911    0.0000 F   0  0  0  0  0  0  0  0  0  0  0  0
    0.7145    4.2911    0.0000 C   0  0  0  0  0  0  0  0  0  0  0  0
    0.7145    3.4661    0.0000 N   0  0  0  0  0  0  0  0  0  0  0  0
    0.0470    2.9812    0.0000 N   0  0  0  0  0  0  0  0  0  0  0  0
    0.3020    2.1965    0.0000 C   0  0  0  0  0  0  0  0  0  0  0  0
   -0.1830    1.5291    0.0000 C   0  0  0  0  0  0  0  0  0  0  0  0
    0.1526    0.7754    0.0000 C   0  0  0  0  0  0  0  0  0  0  0  0
   -1.0034    1.6153    0.0000 C   0  0  0  0  0  0  0  0  0  0  0  0
    1.1270    2.1965    0.0000 N   0  0  0  0  0  0  0  0  0  0  0  0
    1.6119    1.5291    0.0000 C   0  0  0  0  0  0  0  0  0  0  0  0
    1.3819    2.9812    0.0000 C   0  0  0  0  0  0  0  0  0  0  0  0
    2.1665    3.2361    0.0000 O   0  0  0  0  0  0  0  0  0  0  0  0
    0.0000    4.7036    0.0000 C   0  0  0  0  0  0  0  0  0  0  0  0
   -0.0000    5.5286    0.0000 C   0  0  0  0  0  0  0  0  0  0  0  0
   -0.7145    5.9411    0.0000 O   0  0  0  0  0  0  0  0  0  0  0  0
   -1.4289    5.5286    0.0000 C   0  0  0  0  0  0  0  0  0  0  0  0
   -1.4289    4.7036    0.0000 C   0  0  0  0  0  0  0  0  0  0  0  0
   -2.1434    5.9411    0.0000 C   0  0  0  0  0  0  0  0  0  0  0  0
   -1.7309    6.6555    0.0000 F   0  0  0  0  0  0  0  0  0  0  0  0
   -2.5559    5.2266    0.0000 F   0  0  0  0  0  0  0  0  0  0  0  0
   -2.8579    6.3536    0.0000 F   0  0  0  0  0  0  0  0  0  0  0  0
  1  2  1  0  0  0  0
  2  3  4  0  0  0  0
  3  4  4  0  0  0  0
  4  5  4  0  0  0  0
  5  6  4  0  0  0  0
  6  7  1  0  0  0  0
  6  8  4  0  0  0  0
  2  8  4  0  0  0  0
  8  9  1  0  0  0  0
  9 10  1  0  0  0  0
 10 11  2  0  0  0  0
 10 12  1  0  0  0  0
 12 13  4  0  0  0  0
 13 14  4  0  0  0  0
 14 15  1  0  0  0  0
 14 16  4  0  0  0  0
 16 17  1  0  0  0  0
 17 18  4  0  0  0  0
 18 19  4  0  0  0  0
 19 20  1  0  0  0  0
 20 21  1  0  0  0  0
 20 22  1  0  0  0  0
 19 23  4  0  0  0  0
 23 24  1  0  0  0  0
 23 25  4  0  0  0  0
 17 25  4  0  0  0  0
 25 26  2  0  0  0  0
 16 27  4  0  0  0  0
 27 28  4  0  0  0  0
 12 28  4  0  0  0  0
 28 29  1  0  0  0  0
 29 30  1  0  0  0  0
 30 31  1  0  0  0  0
 30 32  1  0  0  0  0
 32 33  1  0  0  0  0
 32 34  1  0  0  0  0
 32 35  1  0  0  0  0
M  END
> <IC50(uM)>
0.004999999999999999

> <Outcome>
1.0

> <BindingDB ID>
972532; 1098686

> <BindingDB MonomerID>
470407

> <BindingDB Ligand Name>
5-fluoro-N-(2-fluoro-6-methylphenyl)-4-[4-methyl-5-oxo-3-(propan-2-yl)-4,5-dihydro-1H-1,2,4-triazol-1-yl]-2-{[(2S)-1,1,1-trifluoropropan-2-yl]oxy}benzamide::US10815215, Example 66; 5-fluoro-N-(2-fluoro-6-methylphenyl)-4-[4-methyl-5-oxo-3-(propan-2-yl)-4,5-dihydro-1H-1,2,4-triazol-1-yl]-2-{[(2S)-1,1,1-trifluoropropan-2-yl]oxy}benzamide::US10815215, Example 66::US11130745, Example 66

> <Curation/DataSource>
US Patent

> <Article DOI>
?

> <PMID>
?

> <Patent Number>
US10815215; US11130745

> <Authors>
Gradl, SN; Nguyen, D; Eis, K; Gunther, J; Stellfeld, T; Janzer, A; Christian, S; Muller, T; Sheikh, SE; Zhou, HJ; Zhao, C; Sykes, DB; Ferrara, SJ; Liu, K; Krober, M; Merz, C; Niehues, M; Schafer, M; Zimmermann, K; Nising, CF; Gradl, SN; Nguyen, D; Eis, K; Gunther, J; Stellfeld, T; Janzer, A; Christian, S; Muller, T; Sheikh, SE; Sykes, DB; Ferrara, SJ; Krober, M; Merz, C; Niehues, M; Schafer, M; Zimmermann, K; Nising, CF

> <Link to Ligand in BindingDB>
http://www.bindingdb.org/bind/chemsearch/marvin/MolStructure.jsp?monomerid=470407

> <Link to Ligand-Target Pair in BindingDB>
http://www.bindingdb.org/jsp/dbsearch/PrimarySearch_ki.jsp?energyterm=kJ/mole&tag=r21&monomerid=470407&enzyme=Dihydroorotate+dehydrogenase&column=ki&startPg=0&Increment=50&submit=Search

> <PubChem CID>
134470355

> <PubChem SID>
441609584

$$$$

  Mrv2115 07222212352D          

 34 37  0  0  0  0            999 V2000
    0.6538    2.1599    0.0000 C   0  0  0  0  0  0  0  0  0  0  0  0
   -0.1712    2.1599    0.0000 C   0  0  0  0  0  0  0  0  0  0  0  0
   -0.5837    1.4455    0.0000 C   0  0  0  0  0  0  0  0  0  0  0  0
   -1.4087    1.4455    0.0000 C   0  0  0  0  0  0  0  0  0  0  0  0
   -1.8212    2.1599    0.0000 C   0  0  0  0  0  0  0  0  0  0  0  0
   -1.8212    0.7310    0.0000 O   0  0  0  0  0  0  0  0  0  0  0  0
   -1.4087    0.0165    0.0000 C   0  0  0  0  0  0  0  0  0  0  0  0
   -0.5837    0.0165    0.0000 C   0  0  0  0  0  0  0  0  0  0  0  0
   -0.1712   -0.6979    0.0000 C   0  0  0  0  0  0  0  0  0  0  0  0
    0.6538   -0.6979    0.0000 N   0  0  0  0  0  0  0  0  0  0  0  0
    1.1387   -0.0305    0.0000 N   0  0  0  0  0  0  0  0  0  0  0  0
    1.9233   -0.2854    0.0000 C   0  0  0  0  0  0  0  0  0  0  0  0
    2.6378    0.1271    0.0000 C   0  0  0  0  0  0  0  0  0  0  0  0
    3.3523   -0.2854    0.0000 C   0  0  0  0  0  0  0  0  0  0  0  0
    3.3523   -1.1104    0.0000 C   0  0  0  0  0  0  0  0  0  0  0  0
    2.6378   -1.5229    0.0000 C   0  0  0  0  0  0  0  0  0  0  0  0
    1.9233   -1.1104    0.0000 N   0  0  0  0  0  0  0  0  0  0  0  0
    1.1387   -1.3654    0.0000 C   0  0  0  0  0  0  0  0  0  0  0  0
    0.8838   -2.1500    0.0000 O   0  0  0  0  0  0  0  0  0  0  0  0
   -0.5837   -1.4124    0.0000 C   0  0  0  0  0  0  0  0  0  0  0  0
   -0.1712   -2.1269    0.0000 F   0  0  0  0  0  0  0  0  0  0  0  0
   -1.4087   -1.4124    0.0000 C   0  0  0  0  0  0  0  0  0  0  0  0
   -1.8212   -0.6979    0.0000 C   0  0  0  0  0  0  0  0  0  0  0  0
   -2.6462   -0.6979    0.0000 C   0  0  0  0  0  0  0  0  0  0  0  0
   -3.0587    0.0165    0.0000 O   0  0  0  0  0  0  0  0  0  0  0  0
   -3.0587   -1.4124    0.0000 N   0  0  0  0  0  0  0  0  0  0  0  0
   -3.8837   -1.4124    0.0000 C   0  0  0  0  0  0  0  0  0  0  0  0
   -4.2962   -0.6979    0.0000 C   0  0  0  0  0  0  0  0  0  0  0  0
   -3.8837    0.0165    0.0000 C   0  0  0  0  0  0  0  0  0  0  0  0
   -5.1212   -0.6979    0.0000 C   0  0  0  0  0  0  0  0  0  0  0  0
   -5.5337   -1.4124    0.0000 C   0  0  0  0  0  0  0  0  0  0  0  0
   -5.1212   -2.1269    0.0000 C   0  0  0  0  0  0  0  0  0  0  0  0
   -4.2962   -2.1269    0.0000 C   0  0  0  0  0  0  0  0  0  0  0  0
   -3.8837   -2.8414    0.0000 F   0  0  0  0  0  0  0  0  0  0  0  0
  1  2  1  0  0  0  0
  2  3  1  0  0  0  0
  3  4  1  0  0  0  0
  4  5  1  0  0  0  0
  4  6  1  0  0  0  0
  6  7  1  0  0  0  0
  7  8  4  0  0  0  0
  8  9  4  0  0  0  0
  9 10  1  0  0  0  0
 10 11  4  0  0  0  0
 11 12  4  0  0  0  0
 12 13  4  0  0  0  0
 13 14  4  0  0  0  0
 14 15  4  0  0  0  0
 15 16  4  0  0  0  0
 16 17  4  0  0  0  0
 12 17  4  0  0  0  0
 17 18  4  0  0  0  0
 10 18  4  0  0  0  0
 18 19  2  0  0  0  0
  9 20  4  0  0  0  0
 20 21  1  0  0  0  0
 20 22  4  0  0  0  0
 22 23  4  0  0  0  0
  7 23  4  0  0  0  0
 23 24  1  0  0  0  0
 24 25  2  0  0  0  0
 24 26  1  0  0  0  0
 26 27  1  0  0  0  0
 27 28  4  0  0  0  0
 28 29  1  0  0  0  0
 28 30  4  0  0  0  0
 30 31  4  0  0  0  0
 31 32  4  0  0  0  0
 32 33  4  0  0  0  0
 27 33  4  0  0  0  0
 33 34  1  0  0  0  0
M  END
> <IC50(uM)>
0.009000000000000001

> <Outcome>
1.0

> <BindingDB ID>
1020611; 1020612

> <BindingDB MonomerID>
490549

> <BindingDB Ligand Name>
5-fluoro-N-(2-fluoro-6-methylphenyl)-4-(3-oxo[1,2,4]triazolo[4,3-a]pyridin-2(3H)-yl)-2-[(2S)-pentan-2-yloxy]benzamide::US10968216, Example 217

> <Curation/DataSource>
US Patent

> <Article DOI>
?

> <PMID>
?

> <Patent Number>
US10968216

> <Authors>
Gradl, SN; Nguyen, D; Eis, K; Gunther, J; Stellfeld, T; Janzer, A; Christian, S; Mueller, T; Sheikh, SE; Zhou, HJ; Zhao, C; Sykes, DB; Ferrara, SJ; Liu, K; Herbert, SA; Merz, C; Niehues, M; Nising, CF; Schafer, M; Zimmermann, K; Knablein, J; Thede, K; Faupel, T

> <Link to Ligand in BindingDB>
http://www.bindingdb.org/bind/chemsearch/marvin/MolStructure.jsp?monomerid=490549

> <Link to Ligand-Target Pair in BindingDB>
http://www.bindingdb.org/jsp/dbsearch/PrimarySearch_ki.jsp?energyterm=kJ/mole&tag=r21&monomerid=490549&enzyme=Dihydroorotate+dehydrogenase&column=ki&startPg=0&Increment=50&submit=Search

> <PubChem CID>
134474430

> <PubChem SID>
447117275

$$$$

  Mrv2115 07222212352D          

 38 41  0  0  0  0            999 V2000
   -3.1034    2.1599    0.0000 C   0  0  0  0  0  0  0  0  0  0  0  0
   -2.6909    1.4455    0.0000 C   0  0  0  0  0  0  0  0  0  0  0  0
   -3.1034    0.7310    0.0000 O   0  0  0  0  0  0  0  0  0  0  0  0
   -2.6909    0.0165    0.0000 C   0  0  0  0  0  0  0  0  0  0  0  0
   -1.8659    0.0165    0.0000 C   0  0  0  0  0  0  0  0  0  0  0  0
   -1.4534   -0.6979    0.0000 C   0  0  0  0  0  0  0  0  0  0  0  0
   -0.6284   -0.6979    0.0000 N   0  0  0  0  0  0  0  0  0  0  0  0
   -0.1435   -1.3654    0.0000 N   0  0  0  0  0  0  0  0  0  0  0  0
    0.6411   -1.1104    0.0000 C   0  0  0  0  0  0  0  0  0  0  0  0
    0.6411   -0.2854    0.0000 N   0  0  0  0  0  0  0  0  0  0  0  0
   -0.1435   -0.0305    0.0000 C   0  0  0  0  0  0  0  0  0  0  0  0
   -0.3984    0.7541    0.0000 O   0  0  0  0  0  0  0  0  0  0  0  0
    1.3556    0.1271    0.0000 C   0  0  0  0  0  0  0  0  0  0  0  0
    2.0701   -0.2854    0.0000 C   0  0  0  0  0  0  0  0  0  0  0  0
    2.0701   -1.1104    0.0000 C   0  0  0  0  0  0  0  0  0  0  0  0
    1.3556   -1.5229    0.0000 C   0  0  0  0  0  0  0  0  0  0  0  0
    1.3556   -2.3479    0.0000 C   0  0  0  0  0  0  0  0  0  0  0  0
    2.0701   -2.7604    0.0000 O   0  0  0  0  0  0  0  0  0  0  0  0
    0.6411   -2.7604    0.0000 O   0  0  0  0  0  0  0  0  0  0  0  0
   -1.8659   -1.4124    0.0000 C   0  0  0  0  0  0  0  0  0  0  0  0
   -1.4534   -2.1269    0.0000 F   0  0  0  0  0  0  0  0  0  0  0  0
   -2.6909   -1.4124    0.0000 C   0  0  0  0  0  0  0  0  0  0  0  0
   -3.1034   -0.6979    0.0000 C   0  0  0  0  0  0  0  0  0  0  0  0
   -3.9284   -0.6979    0.0000 C   0  0  0  0  0  0  0  0  0  0  0  0
   -4.3409    0.0165    0.0000 O   0  0  0  0  0  0  0  0  0  0  0  0
   -4.3409   -1.4124    0.0000 N   0  0  0  0  0  0  0  0  0  0  0  0
   -5.1659   -1.4124    0.0000 C   0  0  0  0  0  0  0  0  0  0  0  0
   -5.5784   -2.1269    0.0000 C   0  0  0  0  0  0  0  0  0  0  0  0
   -5.1659   -2.8414    0.0000 F   0  0  0  0  0  0  0  0  0  0  0  0
   -6.4034   -2.1269    0.0000 C   0  0  0  0  0  0  0  0  0  0  0  0
   -6.8159   -1.4124    0.0000 C   0  0  0  0  0  0  0  0  0  0  0  0
   -6.4034   -0.6979    0.0000 C   0  0  0  0  0  0  0  0  0  0  0  0
   -5.5784   -0.6979    0.0000 C   0  0  0  0  0  0  0  0  0  0  0  0
   -5.1659    0.0165    0.0000 Cl  0  0  0  0  0  0  0  0  0  0  0  0
   -1.8659    1.4455    0.0000 C   0  0  0  0  0  0  0  0  0  0  0  0
   -1.8659    0.6205    0.0000 F   0  0  0  0  0  0  0  0  0  0  0  0
   -1.8659    2.2705    0.0000 F   0  0  0  0  0  0  0  0  0  0  0  0
   -1.0409    1.4455    0.0000 F   0  0  0  0  0  0  0  0  0  0  0  0
  1  2  1  0  0  0  0
  2  3  1  0  0  0  0
  3  4  1  0  0  0  0
  4  5  4  0  0  0  0
  5  6  4  0  0  0  0
  6  7  1  0  0  0  0
  7  8  4  0  0  0  0
  8  9  4  0  0  0  0
  9 10  4  0  0  0  0
 10 11  4  0  0  0  0
  7 11  4  0  0  0  0
 11 12  2  0  0  0  0
 10 13  1  0  0  0  0
 13 14  1  0  0  0  0
 14 15  1  0  0  0  0
 15 16  1  0  0  0  0
  9 16  1  0  0  0  0
 16 17  1  0  0  0  0
 17 18  2  0  0  0  0
 17 19  1  0  0  0  0
  6 20  4  0  0  0  0
 20 21  1  0  0  0  0
 20 22  4  0  0  0  0
 22 23  4  0  0  0  0
  4 23  4  0  0  0  0
 23 24  1  0  0  0  0
 24 25  2  0  0  0  0
 24 26  1  0  0  0  0
 26 27  1  0  0  0  0
 27 28  4  0  0  0  0
 28 29  1  0  0  0  0
 28 30  4  0  0  0  0
 30 31  4  0  0  0  0
 31 32  4  0  0  0  0
 32 33  4  0  0  0  0
 27 33  4  0  0  0  0
 33 34  1  0  0  0  0
  2 35  1  0  0  0  0
 35 36  1  0  0  0  0
 35 37  1  0  0  0  0
 35 38  1  0  0  0  0
M  END
> <IC50(uM)>
0.06

> <Outcome>
1.0

> <BindingDB ID>
1020658

> <BindingDB MonomerID>
490587

> <BindingDB Ligand Name>
2-(4-[(2-chloro-6-fluorophenyl)carbamoyl]-2-fluoro-5-{[(2S)-1,1,1-trifluoropropan-2-yl]oxy}phenyl)-3-oxo-2,3,5,6,7,8-hexahydro[1,2,4]triazolo[4,3-a]pyridine-8-(R,S)-carboxylic Acid, Mixture of Diastereomers::US10968216, Example 255

> <Curation/DataSource>
US Patent

> <Article DOI>
?

> <PMID>
?

> <Patent Number>
US10968216

> <Authors>
Gradl, SN; Nguyen, D; Eis, K; Gunther, J; Stellfeld, T; Janzer, A; Christian, S; Mueller, T; Sheikh, SE; Zhou, HJ; Zhao, C; Sykes, DB; Ferrara, SJ; Liu, K; Herbert, SA; Merz, C; Niehues, M; Nising, CF; Schafer, M; Zimmermann, K; Knablein, J; Thede, K; Faupel, T

> <Link to Ligand in BindingDB>
http://www.bindingdb.org/bind/chemsearch/marvin/MolStructure.jsp?monomerid=490587

> <Link to Ligand-Target Pair in BindingDB>
http://www.bindingdb.org/jsp/dbsearch/PrimarySearch_ki.jsp?energyterm=kJ/mole&tag=r21&monomerid=490587&enzyme=Dihydroorotate+dehydrogenase&column=ki&startPg=0&Increment=50&submit=Search

> <PubChem CID>
134474067

> <PubChem SID>
447117313

$$$$

  Mrv2115 07222212352D          

 27 30  0  0  0  0            999 V2000
    0.0000   -1.6500    0.0000 C   0  0  0  0  0  0  0  0  0  0  0  0
    0.7145   -1.2375    0.0000 C   0  0  0  0  0  0  0  0  0  0  0  0
    0.7145   -0.4125    0.0000 C   0  0  0  0  0  0  0  0  0  0  0  0
    0.0000    0.0000    0.0000 C   0  0  0  0  0  0  0  0  0  0  0  0
   -0.7145   -0.4125    0.0000 C   0  0  0  0  0  0  0  0  0  0  0  0
   -1.4289    0.0000    0.0000 C   0  0  0  0  0  0  0  0  0  0  0  0
   -1.4289    0.8250    0.0000 C   0  0  0  0  0  0  0  0  0  0  0  0
   -2.1434    1.2375    0.0000 C   0  0  0  0  0  0  0  0  0  0  0  0
   -2.8579    0.8250    0.0000 C   0  0  0  0  0  0  0  0  0  0  0  0
   -3.5724    1.2375    0.0000 C   0  0  0  0  0  0  0  0  0  0  0  0
   -3.5724    2.0625    0.0000 C   0  0  0  0  0  0  0  0  0  0  0  0
   -2.8579    2.4750    0.0000 N   0  0  0  0  0  0  0  0  0  0  0  0
   -2.1434    2.0625    0.0000 C   0  0  0  0  0  0  0  0  0  0  0  0
   -1.4289    2.4750    0.0000 Cl  0  0  0  0  0  0  0  0  0  0  0  0
   -0.7145    1.2375    0.0000 C   0  0  0  0  0  0  0  0  0  0  0  0
    0.0000    0.8250    0.0000 C   0  0  0  0  0  0  0  0  0  0  0  0
    1.4289    0.0000    0.0000 N   0  0  0  0  0  0  0  0  0  0  0  0
    2.1434   -0.4125    0.0000 C   0  0  0  0  0  0  0  0  0  0  0  0
    2.8579    0.0000    0.0000 C   0  0  0  0  0  0  0  0  0  0  0  0
    3.5724   -0.4125    0.0000 N   0  0  0  0  0  0  0  0  0  0  0  0
    3.5724   -1.2375    0.0000 C   0  0  0  0  0  0  0  0  0  0  0  0
    2.8579   -1.6500    0.0000 C   0  0  0  0  0  0  0  0  0  0  0  0
    2.1434   -1.2375    0.0000 C   0  0  0  0  0  0  0  0  0  0  0  0
    1.4289   -1.6500    0.0000 C   0  0  0  0  0  0  0  0  0  0  0  0
    1.4289   -2.4750    0.0000 C   0  0  0  0  0  0  0  0  0  0  0  0
    0.7145   -2.8875    0.0000 O   0  0  0  0  0  0  0  0  0  0  0  0
    2.1434   -2.8875    0.0000 O   0  0  0  0  0  0  0  0  0  0  0  0
  1  2  1  0  0  0  0
  2  3  4  0  0  0  0
  3  4  1  0  0  0  0
  4  5  4  0  0  0  0
  5  6  4  0  0  0  0
  6  7  4  0  0  0  0
  7  8  1  0  0  0  0
  8  9  4  0  0  0  0
  9 10  4  0  0  0  0
 10 11  4  0  0  0  0
 11 12  4  0  0  0  0
 12 13  4  0  0  0  0
  8 13  4  0  0  0  0
 13 14  1  0  0  0  0
  7 15  4  0  0  0  0
 15 16  4  0  0  0  0
  4 16  4  0  0  0  0
  3 17  4  0  0  0  0
 17 18  4  0  0  0  0
 18 19  4  0  0  0  0
 19 20  4  0  0  0  0
 20 21  4  0  0  0  0
 21 22  4  0  0  0  0
 22 23  4  0  0  0  0
 18 23  4  0  0  0  0
 23 24  4  0  0  0  0
  2 24  4  0  0  0  0
 24 25  1  0  0  0  0
 25 26  2  0  0  0  0
 25 27  1  0  0  0  0
M  END
> <IC50(uM)>
0.259

> <Outcome>
1.0

> <BindingDB ID>
51126196

> <BindingDB MonomerID>
50461882

> <BindingDB Ligand Name>
CHEMBL4227801

> <Curation/DataSource>
ChEMBL

> <Article DOI>
10.1021/acs.jmedchem.7b01862

> <PMID>
29727569

> <Patent Number>
?

> <Authors>
Madak, JT; Cuthbertson, CR; Miyata, Y; Tamura, S; Petrunak, EM; Stuckey, JA; Han, Y; He, M; Sun, D; Showalter, HD; Neamati, N

> <Link to Ligand in BindingDB>
http://www.bindingdb.org/bind/chemsearch/marvin/MolStructure.jsp?monomerid=50461882

> <Link to Ligand-Target Pair in BindingDB>
http://www.bindingdb.org/jsp/dbsearch/PrimarySearch_ki.jsp?energyterm=kJ/mole&tag=r21&monomerid=50461882&enzyme=Dihydroorotate+dehydrogenase&column=ki&startPg=0&Increment=50&submit=Search

> <PubChem CID>
145967932

> <PubChem SID>
433929147

$$$$

  Mrv2115 07222212352D          

 28 31  0  0  0  0            999 V2000
    2.5559   -1.8243    0.0000 O   0  0  0  0  0  0  0  0  0  0  0  0
    2.5559   -2.6493    0.0000 C   0  0  0  0  0  0  0  0  0  0  0  0
    1.8414   -3.0618    0.0000 O   0  0  0  0  0  0  0  0  0  0  0  0
    3.2704   -3.0618    0.0000 C   0  0  0  0  0  0  0  0  0  0  0  0
    3.2704   -3.8868    0.0000 C   0  0  0  0  0  0  0  0  0  0  0  0
    3.9849   -4.2993    0.0000 C   0  0  0  0  0  0  0  0  0  0  0  0
    3.9849   -5.1243    0.0000 C   0  0  0  0  0  0  0  0  0  0  0  0
    4.3974   -5.8388    0.0000 C   0  0  0  0  0  0  0  0  0  0  0  0
    3.5724   -5.8388    0.0000 C   0  0  0  0  0  0  0  0  0  0  0  0
    4.6993   -3.8868    0.0000 C   0  0  0  0  0  0  0  0  0  0  0  0
    4.6993   -3.0618    0.0000 C   0  0  0  0  0  0  0  0  0  0  0  0
    3.9849   -2.6493    0.0000 C   0  0  0  0  0  0  0  0  0  0  0  0
    3.9849   -1.8243    0.0000 N   0  0  0  0  0  0  0  0  0  0  0  0
    4.6993   -1.4118    0.0000 C   0  0  0  0  0  0  0  0  0  0  0  0
    4.6993   -0.5868    0.0000 C   0  0  0  0  0  0  0  0  0  0  0  0
    5.4138   -0.1743    0.0000 N   0  0  0  0  0  0  0  0  0  0  0  0
    6.1283   -0.5868    0.0000 C   0  0  0  0  0  0  0  0  0  0  0  0
    6.8427   -0.1743    0.0000 C   0  0  0  0  0  0  0  0  0  0  0  0
    6.8427    0.6507    0.0000 C   0  0  0  0  0  0  0  0  0  0  0  0
    6.1283    1.0632    0.0000 F   0  0  0  0  0  0  0  0  0  0  0  0
    7.5572    1.0632    0.0000 C   0  0  0  0  0  0  0  0  0  0  0  0
    8.2717    0.6507    0.0000 C   0  0  0  0  0  0  0  0  0  0  0  0
    8.9862    1.0632    0.0000 O   0  0  0  0  0  0  0  0  0  0  0  0
    8.2717   -0.1743    0.0000 C   0  0  0  0  0  0  0  0  0  0  0  0
    7.5572   -0.5868    0.0000 C   0  0  0  0  0  0  0  0  0  0  0  0
    7.5572   -1.4118    0.0000 F   0  0  0  0  0  0  0  0  0  0  0  0
    6.1283   -1.4118    0.0000 N   0  0  0  0  0  0  0  0  0  0  0  0
    5.4138   -1.8243    0.0000 C   0  0  0  0  0  0  0  0  0  0  0  0
  1  2  2  0  0  0  0
  2  3  1  0  0  0  0
  2  4  1  0  0  0  0
  4  5  4  0  0  0  0
  5  6  4  0  0  0  0
  6  7  1  0  0  0  0
  7  8  1  0  0  0  0
  8  9  1  0  0  0  0
  7  9  1  0  0  0  0
  6 10  4  0  0  0  0
 10 11  4  0  0  0  0
 11 12  4  0  0  0  0
  4 12  4  0  0  0  0
 12 13  1  0  0  0  0
 13 14  1  0  0  0  0
 14 15  4  0  0  0  0
 15 16  4  0  0  0  0
 16 17  4  0  0  0  0
 17 18  1  0  0  0  0
 18 19  4  0  0  0  0
 19 20  1  0  0  0  0
 19 21  4  0  0  0  0
 21 22  4  0  0  0  0
 22 23  1  0  0  0  0
 22 24  4  0  0  0  0
 24 25  4  0  0  0  0
 18 25  4  0  0  0  0
 25 26  1  0  0  0  0
 17 27  4  0  0  0  0
 27 28  4  0  0  0  0
 14 28  4  0  0  0  0
M  END
> <IC50(uM)>
0.057

> <Outcome>
1.0

> <BindingDB ID>
219978

> <BindingDB MonomerID>
102448

> <BindingDB Ligand Name>
US8536165, 6

> <Curation/DataSource>
US Patent

> <Article DOI>
?

> <PMID>
?

> <Patent Number>
US8536165

> <Authors>
Castro Palomino Laria, JC; Terricabras Belart, E; Erra Sola, M; Navarro Romero, E; Fonquerna Pou, S; Cardus Figueras, A; Lozoya Toribio, ME

> <Link to Ligand in BindingDB>
http://www.bindingdb.org/bind/chemsearch/marvin/MolStructure.jsp?monomerid=102448

> <Link to Ligand-Target Pair in BindingDB>
http://www.bindingdb.org/jsp/dbsearch/PrimarySearch_ki.jsp?energyterm=kJ/mole&tag=r21&monomerid=102448&enzyme=Dihydroorotate+dehydrogenase&column=ki&startPg=0&Increment=50&submit=Search

> <PubChem CID>
25186448

> <PubChem SID>
172097739

$$$$

  Mrv2115 07222212352D          

 23 26  0  0  0  0            999 V2000
   -0.1712   -0.6979    0.0000 C   0  0  0  0  0  0  0  0  0  0  0  0
    0.6538   -0.6979    0.0000 C   0  0  0  0  0  0  0  0  0  0  0  0
    1.1387   -0.0305    0.0000 N   0  0  0  0  0  0  0  0  0  0  0  0
    1.9233   -0.2854    0.0000 C   0  0  0  0  0  0  0  0  0  0  0  0
    2.6378    0.1271    0.0000 C   0  0  0  0  0  0  0  0  0  0  0  0
    2.6378    0.9521    0.0000 C   0  0  0  0  0  0  0  0  0  0  0  0
    2.6378    1.7771    0.0000 N   0  0  0  0  0  0  0  0  0  0  0  0
    3.3523   -0.2854    0.0000 C   0  0  0  0  0  0  0  0  0  0  0  0
    3.3523   -1.1104    0.0000 C   0  0  0  0  0  0  0  0  0  0  0  0
    2.6378   -1.5229    0.0000 C   0  0  0  0  0  0  0  0  0  0  0  0
    1.9233   -1.1104    0.0000 C   0  0  0  0  0  0  0  0  0  0  0  0
    1.1387   -1.3654    0.0000 N   0  0  0  0  0  0  0  0  0  0  0  0
    0.8838   -2.1500    0.0000 C   0  0  0  0  0  0  0  0  0  0  0  0
    1.3687   -2.8174    0.0000 C   0  0  0  0  0  0  0  0  0  0  0  0
    0.8838   -3.4849    0.0000 C   0  0  0  0  0  0  0  0  0  0  0  0
    0.0992   -3.2299    0.0000 C   0  0  0  0  0  0  0  0  0  0  0  0
   -0.5683   -3.7149    0.0000 C   0  0  0  0  0  0  0  0  0  0  0  0
   -1.3220   -3.3793    0.0000 O   0  0  0  0  0  0  0  0  0  0  0  0
   -0.4820   -4.5353    0.0000 N   0  0  0  0  0  0  0  0  0  0  0  0
   -1.1495   -5.0203    0.0000 C   0  0  0  0  0  0  0  0  0  0  0  0
   -1.4850   -5.7739    0.0000 C   0  0  0  0  0  0  0  0  0  0  0  0
   -1.9700   -5.1065    0.0000 C   0  0  0  0  0  0  0  0  0  0  0  0
    0.0992   -2.4049    0.0000 S   0  0  0  0  0  0  0  0  0  0  0  0
  1  2  1  0  0  0  0
  2  3  4  0  0  0  0
  3  4  4  0  0  0  0
  4  5  4  0  0  0  0
  5  6  1  0  0  0  0
  6  7  3  0  0  0  0
  5  8  4  0  0  0  0
  8  9  4  0  0  0  0
  9 10  4  0  0  0  0
 10 11  4  0  0  0  0
  4 11  4  0  0  0  0
 11 12  4  0  0  0  0
  2 12  4  0  0  0  0
 12 13  1  0  0  0  0
 13 14  4  0  0  0  0
 14 15  4  0  0  0  0
 15 16  4  0  0  0  0
 16 17  1  0  0  0  0
 17 18  2  0  0  0  0
 17 19  1  0  0  0  0
 19 20  1  0  0  0  0
 20 21  1  0  0  0  0
 21 22  1  0  0  0  0
 20 22  1  0  0  0  0
 16 23  4  0  0  0  0
 13 23  4  0  0  0  0
M  END
> <IC50(uM)>
30.0

> <Outcome>
0.0

> <BindingDB ID>
404291

> <BindingDB MonomerID>
50379156

> <BindingDB Ligand Name>
CHEMBL2012958::Genz-669178

> <Curation/DataSource>
Curated from the literature by BindingDB

> <Article DOI>
10.1074/jbc.M114.558353

> <PMID>
24782313

> <Patent Number>
?

> <Authors>
Ross, LS; Gamo, FJ; Lafuente-Monasterio, MJ; Singh, OM; Rowland, P; Wiegand, RC; Wirth, DF

> <Link to Ligand in BindingDB>
http://www.bindingdb.org/bind/chemsearch/marvin/MolStructure.jsp?monomerid=50379156

> <Link to Ligand-Target Pair in BindingDB>
http://www.bindingdb.org/jsp/dbsearch/PrimarySearch_ki.jsp?energyterm=kJ/mole&tag=r21&monomerid=50379156&enzyme=Dihydroorotate+dehydrogenase&column=ki&startPg=0&Increment=50&submit=Search

> <PubChem CID>
53494972

> <PubChem SID>
160858239

$$$$

  Mrv2115 07222212352D          

 18 19  0  0  0  0            999 V2000
    2.2501    6.0027    0.0000 C   0  0  0  0  0  0  0  0  0  0  0  0
    1.5356    5.5902    0.0000 C   0  0  0  0  0  0  0  0  0  0  0  0
    1.5356    4.7652    0.0000 C   0  0  0  0  0  0  0  0  0  0  0  0
    0.8212    4.3527    0.0000 C   0  0  0  0  0  0  0  0  0  0  0  0
    0.1067    4.7652    0.0000 C   0  0  0  0  0  0  0  0  0  0  0  0
   -0.6078    4.3527    0.0000 N   0  0  0  0  0  0  0  0  0  0  0  0
   -0.6078    3.5277    0.0000 C   0  0  0  0  0  0  0  0  0  0  0  0
    0.0597    3.0428    0.0000 S   0  0  0  0  0  0  0  0  0  0  0  0
   -0.1953    2.2581    0.0000 C   0  0  0  0  0  0  0  0  0  0  0  0
   -1.0203    2.2581    0.0000 C   0  0  0  0  0  0  0  0  0  0  0  0
   -1.5052    1.5907    0.0000 O   0  0  0  0  0  0  0  0  0  0  0  0
   -1.2752    3.0428    0.0000 C   0  0  0  0  0  0  0  0  0  0  0  0
   -2.0598    3.2977    0.0000 C   0  0  0  0  0  0  0  0  0  0  0  0
   -2.2314    4.1047    0.0000 O   0  0  0  0  0  0  0  0  0  0  0  0
   -2.6729    2.7457    0.0000 O   0  0  0  0  0  0  0  0  0  0  0  0
    0.1067    5.5902    0.0000 C   0  0  0  0  0  0  0  0  0  0  0  0
    0.8212    6.0027    0.0000 C   0  0  0  0  0  0  0  0  0  0  0  0
    0.8212    6.8277    0.0000 C   0  0  0  0  0  0  0  0  0  0  0  0
  1  2  1  0  0  0  0
  2  3  4  0  0  0  0
  3  4  4  0  0  0  0
  4  5  4  0  0  0  0
  5  6  1  0  0  0  0
  6  7  1  0  0  0  0
  7  8  4  0  0  0  0
  8  9  4  0  0  0  0
  9 10  4  0  0  0  0
 10 11  1  0  0  0  0
 10 12  4  0  0  0  0
  7 12  4  0  0  0  0
 12 13  1  0  0  0  0
 13 14  2  0  0  0  0
 13 15  1  0  0  0  0
  5 16  4  0  0  0  0
 16 17  4  0  0  0  0
  2 17  4  0  0  0  0
 17 18  1  0  0  0  0
M  END
> <IC50(uM)>
50.0

> <Outcome>
0.0

> <BindingDB ID>
51079165

> <BindingDB MonomerID>
50441273

> <BindingDB Ligand Name>
CHEMBL2431520

> <Curation/DataSource>
ChEMBL

> <Article DOI>
10.1021/jm400938g

> <PMID>
24073986

> <Patent Number>
?

> <Authors>
Xu, M; Zhu, J; Diao, Y; Zhou, H; Ren, X; Sun, D; Huang, J; Han, D; Zhao, Z; Zhu, L; Xu, Y; Li, H

> <Link to Ligand in BindingDB>
http://www.bindingdb.org/bind/chemsearch/marvin/MolStructure.jsp?monomerid=50441273

> <Link to Ligand-Target Pair in BindingDB>
http://www.bindingdb.org/jsp/dbsearch/PrimarySearch_ki.jsp?energyterm=kJ/mole&tag=r21&monomerid=50441273&enzyme=Dihydroorotate+dehydrogenase&column=ki&startPg=0&Increment=50&submit=Search

> <PubChem CID>
91898834

> <PubChem SID>
175453590

$$$$

  Mrv2115 07222212352D          

 28 30  0  0  0  0            999 V2000
    1.4289   -4.9500    0.0000 O   0  0  0  0  0  0  0  0  0  0  0  0
    2.1434   -5.3625    0.0000 C   0  0  0  0  0  0  0  0  0  0  0  0
    2.8579   -4.9500    0.0000 O   0  0  0  0  0  0  0  0  0  0  0  0
    2.1434   -6.1875    0.0000 C   0  0  0  0  0  0  0  0  0  0  0  0
    2.8109   -6.6724    0.0000 C   0  0  0  0  0  0  0  0  0  0  0  0
    3.5955   -6.4175    0.0000 C   0  0  0  0  0  0  0  0  0  0  0  0
    4.2086   -6.9695    0.0000 O   0  0  0  0  0  0  0  0  0  0  0  0
    3.7670   -5.6105    0.0000 N   0  0  0  0  0  0  0  0  0  0  0  0
    4.5516   -5.3556    0.0000 C   0  0  0  0  0  0  0  0  0  0  0  0
    4.7231   -4.5486    0.0000 C   0  0  0  0  0  0  0  0  0  0  0  0
    5.5078   -4.2937    0.0000 C   0  0  0  0  0  0  0  0  0  0  0  0
    6.1209   -4.8457    0.0000 C   0  0  0  0  0  0  0  0  0  0  0  0
    6.9055   -4.5908    0.0000 O   0  0  0  0  0  0  0  0  0  0  0  0
    7.0770   -3.7838    0.0000 C   0  0  0  0  0  0  0  0  0  0  0  0
    7.8616   -3.5288    0.0000 C   0  0  0  0  0  0  0  0  0  0  0  0
    8.0332   -2.7219    0.0000 C   0  0  0  0  0  0  0  0  0  0  0  0
    7.4201   -2.1698    0.0000 F   0  0  0  0  0  0  0  0  0  0  0  0
    8.8178   -2.4669    0.0000 C   0  0  0  0  0  0  0  0  0  0  0  0
    9.4309   -3.0190    0.0000 C   0  0  0  0  0  0  0  0  0  0  0  0
    9.2594   -3.8259    0.0000 C   0  0  0  0  0  0  0  0  0  0  0  0
    8.4747   -4.0809    0.0000 C   0  0  0  0  0  0  0  0  0  0  0  0
    8.3032   -4.8878    0.0000 Cl  0  0  0  0  0  0  0  0  0  0  0  0
    5.9493   -5.6527    0.0000 C   0  0  0  0  0  0  0  0  0  0  0  0
    6.5624   -6.2047    0.0000 Cl  0  0  0  0  0  0  0  0  0  0  0  0
    5.1647   -5.9076    0.0000 C   0  0  0  0  0  0  0  0  0  0  0  0
    2.5559   -7.4570    0.0000 C   0  0  0  0  0  0  0  0  0  0  0  0
    1.7309   -7.4570    0.0000 C   0  0  0  0  0  0  0  0  0  0  0  0
    1.4760   -6.6724    0.0000 C   0  0  0  0  0  0  0  0  0  0  0  0
  1  2  2  0  0  0  0
  2  3  1  0  0  0  0
  2  4  1  0  0  0  0
  4  5  2  0  0  0  0
  5  6  1  0  0  0  0
  6  7  2  0  0  0  0
  6  8  1  0  0  0  0
  8  9  1  0  0  0  0
  9 10  4  0  0  0  0
 10 11  4  0  0  0  0
 11 12  4  0  0  0  0
 12 13  1  0  0  0  0
 13 14  1  0  0  0  0
 14 15  1  0  0  0  0
 15 16  4  0  0  0  0
 16 17  1  0  0  0  0
 16 18  4  0  0  0  0
 18 19  4  0  0  0  0
 19 20  4  0  0  0  0
 20 21  4  0  0  0  0
 15 21  4  0  0  0  0
 21 22  1  0  0  0  0
 12 23  4  0  0  0  0
 23 24  1  0  0  0  0
 23 25  4  0  0  0  0
  9 25  4  0  0  0  0
  5 26  1  0  0  0  0
 26 27  1  0  0  0  0
 27 28  1  0  0  0  0
  4 28  1  0  0  0  0
M  END
> <IC50(uM)>
0.011

> <Outcome>
1.0

> <BindingDB ID>
50319875

> <BindingDB MonomerID>
50173145

> <BindingDB Ligand Name>
2-[3-Chloro-4-(2-chloro-6-fluoro-benzyloxy)-phenylcarbamoyl]-cyclopent-1-enecarboxylic acid::CHEMBL193365

> <Curation/DataSource>
ChEMBL

> <Article DOI>
10.1016/j.bmcl.2005.07.053

> <PMID>
16143532

> <Patent Number>
?

> <Authors>
Leban, J; Kralik, M; Mies, J; Gassen, M; Tentschert, K; Baumgartner, R

> <Link to Ligand in BindingDB>
http://www.bindingdb.org/bind/chemsearch/marvin/MolStructure.jsp?monomerid=50173145

> <Link to Ligand-Target Pair in BindingDB>
http://www.bindingdb.org/jsp/dbsearch/PrimarySearch_ki.jsp?energyterm=kJ/mole&tag=r21&monomerid=50173145&enzyme=Dihydroorotate+dehydrogenase&column=ki&startPg=0&Increment=50&submit=Search

> <PubChem CID>
21084741

> <PubChem SID>
104059116

$$$$

  Mrv2115 07222212352D          

 23 24  0  0  0  0            999 V2000
    2.0367   -0.4741    0.0000 C   0  0  0  0  0  0  0  0  0  0  0  0
    2.0367   -1.2991    0.0000 C   0  0  0  0  0  0  0  0  0  0  0  0
    2.7041   -1.7840    0.0000 C   0  0  0  0  0  0  0  0  0  0  0  0
    3.4888   -1.5291    0.0000 C   0  0  0  0  0  0  0  0  0  0  0  0
    4.1019   -2.0811    0.0000 C   0  0  0  0  0  0  0  0  0  0  0  0
    4.8865   -1.8262    0.0000 C   0  0  0  0  0  0  0  0  0  0  0  0
    5.4996   -2.3782    0.0000 C   0  0  0  0  0  0  0  0  0  0  0  0
    5.3281   -3.1852    0.0000 C   0  0  0  0  0  0  0  0  0  0  0  0
    5.9411   -3.7372    0.0000 C   0  0  0  0  0  0  0  0  0  0  0  0
    6.5542   -4.2893    0.0000 F   0  0  0  0  0  0  0  0  0  0  0  0
    6.4932   -3.1241    0.0000 F   0  0  0  0  0  0  0  0  0  0  0  0
    5.3891   -4.3503    0.0000 F   0  0  0  0  0  0  0  0  0  0  0  0
    4.5434   -3.4401    0.0000 N   0  0  0  0  0  0  0  0  0  0  0  0
    3.9303   -2.8881    0.0000 C   0  0  0  0  0  0  0  0  0  0  0  0
    2.4492   -2.5687    0.0000 C   0  0  0  0  0  0  0  0  0  0  0  0
    1.6242   -2.5687    0.0000 N   0  0  0  0  0  0  0  0  0  0  0  0
    1.3693   -1.7840    0.0000 C   0  0  0  0  0  0  0  0  0  0  0  0
    0.5846   -1.5291    0.0000 C   0  0  0  0  0  0  0  0  0  0  0  0
    0.4131   -0.7221    0.0000 O   0  0  0  0  0  0  0  0  0  0  0  0
   -0.0284   -2.0811    0.0000 N   0  0  0  0  0  0  0  0  0  0  0  0
   -0.8131   -1.8262    0.0000 C   0  0  0  0  0  0  0  0  0  0  0  0
   -1.4262   -2.3782    0.0000 C   0  0  0  0  0  0  0  0  0  0  0  0
   -0.9846   -1.0192    0.0000 C   0  0  0  0  0  0  0  0  0  0  0  0
  1  2  1  0  0  0  0
  2  3  4  0  0  0  0
  3  4  1  0  0  0  0
  4  5  1  0  0  0  0
  5  6  4  0  0  0  0
  6  7  4  0  0  0  0
  7  8  4  0  0  0  0
  8  9  1  0  0  0  0
  9 10  1  0  0  0  0
  9 11  1  0  0  0  0
  9 12  1  0  0  0  0
  8 13  4  0  0  0  0
 13 14  4  0  0  0  0
  5 14  4  0  0  0  0
  3 15  4  0  0  0  0
 15 16  4  0  0  0  0
 16 17  4  0  0  0  0
  2 17  4  0  0  0  0
 17 18  1  0  0  0  0
 18 19  2  0  0  0  0
 18 20  1  0  0  0  0
 20 21  1  0  0  0  0
 21 22  1  0  0  0  0
 21 23  1  0  0  0  0
M  STY  1   1 DAT
M  SAL   1  1  16
M  SDT   1 MRV_IMPLICIT_H                                        
M  SDD   1     0.5304   -0.4125    DR    ALL  0       0  
M  SED   1 IMPL_H1
M  END
> <IC50(uM)>
100.0

> <Outcome>
0.0

> <BindingDB ID>
51330099

> <BindingDB MonomerID>
50538347

> <BindingDB Ligand Name>
CHEMBL4634454

> <Curation/DataSource>
ChEMBL

> <Article DOI>
10.1021/acs.jmedchem.0c00311

> <PMID>
32248693

> <Patent Number>
?

> <Authors>
Kokkonda, S; Deng, X; White, KL; El Mazouni, F; White, J; Shackleford, DM; Katneni, K; Chiu, FCK; Barker, H; McLaren, J; Crighton, E; Chen, G; Angulo-Barturen, I; Jimenez-Diaz, MB; Ferrer, S; Huertas-Valentin, L; Martinez-Martinez, MS; Lafuente-Monasterio, MJ; Chittimalla, R; Shahi, SP; Wittlin, S; Waterson, D; Burrows, JN; Matthews, D; Tomchick, D; Rathod, PK; Palmer, MJ; Charman, SA; Phillips, MA

> <Link to Ligand in BindingDB>
http://www.bindingdb.org/bind/chemsearch/marvin/MolStructure.jsp?monomerid=50538347

> <Link to Ligand-Target Pair in BindingDB>
http://www.bindingdb.org/jsp/dbsearch/PrimarySearch_ki.jsp?energyterm=kJ/mole&tag=r21&monomerid=50538347&enzyme=Dihydroorotate+dehydrogenase&column=ki&startPg=0&Increment=50&submit=Search

> <PubChem CID>
156009747

> <PubChem SID>
442139910

$$$$

  Mrv2115 07222212352D          

 22 23  0  0  0  0            999 V2000
    0.6955   -5.3280    0.0000 C   0  0  0  0  0  0  0  0  0  0  0  0
    1.4100   -5.7405    0.0000 C   0  0  0  0  0  0  0  0  0  0  0  0
    2.1245   -5.3280    0.0000 C   0  0  0  0  0  0  0  0  0  0  0  0
    2.8389   -5.7405    0.0000 C   0  0  0  0  0  0  0  0  0  0  0  0
    3.5534   -5.3280    0.0000 N   0  0  0  0  0  0  0  0  0  0  0  0
    4.2679   -5.7405    0.0000 C   0  0  0  0  0  0  0  0  0  0  0  0
    4.2679   -6.5655    0.0000 O   0  0  0  0  0  0  0  0  0  0  0  0
    4.9823   -5.3280    0.0000 C   0  0  0  0  0  0  0  0  0  0  0  0
    5.0686   -4.5075    0.0000 C   0  0  0  0  0  0  0  0  0  0  0  0
    4.4555   -3.9555    0.0000 O   0  0  0  0  0  0  0  0  0  0  0  0
    5.8756   -4.3360    0.0000 C   0  0  0  0  0  0  0  0  0  0  0  0
    6.2881   -5.0505    0.0000 S   0  0  0  0  0  0  0  0  0  0  0  0
    5.7360   -5.6636    0.0000 C   0  0  0  0  0  0  0  0  0  0  0  0
    5.9076   -6.4706    0.0000 N   0  0  0  0  0  0  0  0  0  0  0  0
    6.6922   -6.7255    0.0000 C   0  0  0  0  0  0  0  0  0  0  0  0
    7.3053   -6.1735    0.0000 C   0  0  0  0  0  0  0  0  0  0  0  0
    8.0899   -6.4284    0.0000 C   0  0  0  0  0  0  0  0  0  0  0  0
    8.2614   -7.2354    0.0000 C   0  0  0  0  0  0  0  0  0  0  0  0
    9.0460   -7.4903    0.0000 C   0  0  0  0  0  0  0  0  0  0  0  0
    7.6483   -7.7874    0.0000 C   0  0  0  0  0  0  0  0  0  0  0  0
    7.8198   -8.5944    0.0000 C   0  0  0  0  0  0  0  0  0  0  0  0
    6.8637   -7.5325    0.0000 C   0  0  0  0  0  0  0  0  0  0  0  0
  1  2  1  0  0  0  0
  2  3  1  0  0  0  0
  3  4  1  0  0  0  0
  4  5  1  0  0  0  0
  5  6  1  0  0  0  0
  6  7  2  0  0  0  0
  6  8  1  0  0  0  0
  8  9  4  0  0  0  0
  9 10  1  0  0  0  0
  9 11  4  0  0  0  0
 11 12  4  0  0  0  0
 12 13  4  0  0  0  0
  8 13  4  0  0  0  0
 13 14  1  0  0  0  0
 14 15  1  0  0  0  0
 15 16  4  0  0  0  0
 16 17  4  0  0  0  0
 17 18  4  0  0  0  0
 18 19  1  0  0  0  0
 18 20  4  0  0  0  0
 20 21  1  0  0  0  0
 20 22  4  0  0  0  0
 15 22  4  0  0  0  0
M  END
> <IC50(uM)>
4.422

> <Outcome>
0.0

> <BindingDB ID>
51079156

> <BindingDB MonomerID>
50441264

> <BindingDB Ligand Name>
CHEMBL2431485

> <Curation/DataSource>
ChEMBL

> <Article DOI>
10.1021/jm400938g

> <PMID>
24073986

> <Patent Number>
?

> <Authors>
Xu, M; Zhu, J; Diao, Y; Zhou, H; Ren, X; Sun, D; Huang, J; Han, D; Zhao, Z; Zhu, L; Xu, Y; Li, H

> <Link to Ligand in BindingDB>
http://www.bindingdb.org/bind/chemsearch/marvin/MolStructure.jsp?monomerid=50441264

> <Link to Ligand-Target Pair in BindingDB>
http://www.bindingdb.org/jsp/dbsearch/PrimarySearch_ki.jsp?energyterm=kJ/mole&tag=r21&monomerid=50441264&enzyme=Dihydroorotate+dehydrogenase&column=ki&startPg=0&Increment=50&submit=Search

> <PubChem CID>
91898825

> <PubChem SID>
175453581

$$$$

  Mrv2115 07222212352D          

 33 35  0  0  0  0            999 V2000
    0.7145   -3.7125    0.0000 C   0  0  0  0  0  0  0  0  0  0  0  0
    1.4289   -4.1250    0.0000 C   0  0  0  0  0  0  0  0  0  0  0  0
    2.1434   -3.7125    0.0000 C   0  0  0  0  0  0  0  0  0  0  0  0
    2.8579   -4.1250    0.0000 C   0  0  0  0  0  0  0  0  0  0  0  0
    2.8579   -4.9500    0.0000 C   0  0  0  0  0  0  0  0  0  0  0  0
    3.5724   -3.7125    0.0000 O   0  0  0  0  0  0  0  0  0  0  0  0
    3.5724   -2.8875    0.0000 C   0  0  0  0  0  0  0  0  0  0  0  0
    2.8579   -2.4750    0.0000 C   0  0  0  0  0  0  0  0  0  0  0  0
    2.8579   -1.6500    0.0000 C   0  0  0  0  0  0  0  0  0  0  0  0
    2.1434   -1.2375    0.0000 N   0  0  0  0  0  0  0  0  0  0  0  0
    1.3897   -1.5731    0.0000 N   0  0  0  0  0  0  0  0  0  0  0  0
    0.8377   -0.9600    0.0000 C   0  0  0  0  0  0  0  0  0  0  0  0
    0.0172   -1.0462    0.0000 C   0  0  0  0  0  0  0  0  0  0  0  0
   -0.4677   -0.3788    0.0000 C   0  0  0  0  0  0  0  0  0  0  0  0
    1.2502   -0.2455    0.0000 N   0  0  0  0  0  0  0  0  0  0  0  0
    0.9146    0.5082    0.0000 C   0  0  0  0  0  0  0  0  0  0  0  0
    2.0572   -0.4170    0.0000 C   0  0  0  0  0  0  0  0  0  0  0  0
    2.6703    0.1350    0.0000 O   0  0  0  0  0  0  0  0  0  0  0  0
    3.5724   -1.2375    0.0000 C   0  0  0  0  0  0  0  0  0  0  0  0
    3.5724   -0.4125    0.0000 F   0  0  0  0  0  0  0  0  0  0  0  0
    4.2868   -1.6500    0.0000 C   0  0  0  0  0  0  0  0  0  0  0  0
    4.2868   -2.4750    0.0000 C   0  0  0  0  0  0  0  0  0  0  0  0
    5.0013   -2.8875    0.0000 C   0  0  0  0  0  0  0  0  0  0  0  0
    5.7158   -2.4750    0.0000 O   0  0  0  0  0  0  0  0  0  0  0  0
    5.0013   -3.7125    0.0000 N   0  0  0  0  0  0  0  0  0  0  0  0
    5.7158   -4.1250    0.0000 C   0  0  0  0  0  0  0  0  0  0  0  0
    6.4302   -3.7125    0.0000 C   0  0  0  0  0  0  0  0  0  0  0  0
    7.1447   -4.1250    0.0000 C   0  0  0  0  0  0  0  0  0  0  0  0
    7.1447   -4.9500    0.0000 C   0  0  0  0  0  0  0  0  0  0  0  0
    6.4302   -5.3625    0.0000 C   0  0  0  0  0  0  0  0  0  0  0  0
    5.7158   -4.9500    0.0000 C   0  0  0  0  0  0  0  0  0  0  0  0
    5.0013   -5.3625    0.0000 O   0  0  0  0  0  0  0  0  0  0  0  0
    4.2868   -4.9500    0.0000 C   0  0  0  0  0  0  0  0  0  0  0  0
  1  2  1  0  0  0  0
  2  3  1  0  0  0  0
  3  4  1  0  0  0  0
  4  5  1  0  0  0  0
  4  6  1  0  0  0  0
  6  7  1  0  0  0  0
  7  8  4  0  0  0  0
  8  9  4  0  0  0  0
  9 10  1  0  0  0  0
 10 11  4  0  0  0  0
 11 12  4  0  0  0  0
 12 13  1  0  0  0  0
 13 14  1  0  0  0  0
 12 15  4  0  0  0  0
 15 16  1  0  0  0  0
 15 17  4  0  0  0  0
 10 17  4  0  0  0  0
 17 18  2  0  0  0  0
  9 19  4  0  0  0  0
 19 20  1  0  0  0  0
 19 21  4  0  0  0  0
 21 22  4  0  0  0  0
  7 22  4  0  0  0  0
 22 23  1  0  0  0  0
 23 24  2  0  0  0  0
 23 25  1  0  0  0  0
 25 26  1  0  0  0  0
 26 27  4  0  0  0  0
 27 28  4  0  0  0  0
 28 29  4  0  0  0  0
 29 30  4  0  0  0  0
 30 31  4  0  0  0  0
 26 31  4  0  0  0  0
 31 32  1  0  0  0  0
 32 33  1  0  0  0  0
M  END
> <IC50(uM)>
0.25449999999999995

> <Outcome>
1.0

> <BindingDB ID>
972490; 1098644; 972491; 1098645

> <BindingDB MonomerID>
470373

> <BindingDB Ligand Name>
4-(3-ethyl-4-methyl-5-oxo-4,5-dihydro-1H-1,2,4-triazol-1-yl)-5-fluoro-N-(2-methoxyphenyl)-2-[(2S)-pentan-2-yloxy]benzamide::US10815215, Example 34; 4-(3-ethyl-4-methyl-5-oxo-4,5-dihydro-1H-1,2,4-triazol-1-yl)-5-fluoro-N-(2-methoxyphenyl)-2-[(2S)-pentan-2-yloxy]benzamide::US10815215, Example 34::US11130745, Example 34

> <Curation/DataSource>
US Patent

> <Article DOI>
?

> <PMID>
?

> <Patent Number>
US10815215; US11130745

> <Authors>
Gradl, SN; Nguyen, D; Eis, K; Gunther, J; Stellfeld, T; Janzer, A; Christian, S; Muller, T; Sheikh, SE; Zhou, HJ; Zhao, C; Sykes, DB; Ferrara, SJ; Liu, K; Krober, M; Merz, C; Niehues, M; Schafer, M; Zimmermann, K; Nising, CF; Gradl, SN; Nguyen, D; Eis, K; Gunther, J; Stellfeld, T; Janzer, A; Christian, S; Muller, T; Sheikh, SE; Sykes, DB; Ferrara, SJ; Krober, M; Merz, C; Niehues, M; Schafer, M; Zimmermann, K; Nising, CF

> <Link to Ligand in BindingDB>
http://www.bindingdb.org/bind/chemsearch/marvin/MolStructure.jsp?monomerid=470373

> <Link to Ligand-Target Pair in BindingDB>
http://www.bindingdb.org/jsp/dbsearch/PrimarySearch_ki.jsp?energyterm=kJ/mole&tag=r21&monomerid=470373&enzyme=Dihydroorotate+dehydrogenase&column=ki&startPg=0&Increment=50&submit=Search

> <PubChem CID>
134470044

> <PubChem SID>
441609550

$$$$

  Mrv2115 07222212352D          

 31 35  0  0  0  0            999 V2000
    6.2341   -5.9188    0.0000 C   0  0  0  0  0  0  0  0  0  0  0  0
    5.4271   -5.7473    0.0000 C   0  0  0  0  0  0  0  0  0  0  0  0
    4.8750   -6.3604    0.0000 C   0  0  0  0  0  0  0  0  0  0  0  0
    5.1721   -4.9627    0.0000 C   0  0  0  0  0  0  0  0  0  0  0  0
    4.3652   -4.7911    0.0000 C   0  0  0  0  0  0  0  0  0  0  0  0
    4.1102   -4.0065    0.0000 C   0  0  0  0  0  0  0  0  0  0  0  0
    4.6623   -3.3934    0.0000 C   0  0  0  0  0  0  0  0  0  0  0  0
    4.4073   -2.6088    0.0000 C   0  0  0  0  0  0  0  0  0  0  0  0
    3.6004   -2.4373    0.0000 C   0  0  0  0  0  0  0  0  0  0  0  0
    3.3454   -1.6527    0.0000 C   0  0  0  0  0  0  0  0  0  0  0  0
    3.8974   -1.0396    0.0000 C   0  0  0  0  0  0  0  0  0  0  0  0
    3.6425   -0.2549    0.0000 N   0  0  0  0  0  0  0  0  0  0  0  0
    4.1274    0.4125    0.0000 N   0  0  0  0  0  0  0  0  0  0  0  0
    3.6425    1.0799    0.0000 N   0  0  0  0  0  0  0  0  0  0  0  0
    2.8579    0.8250    0.0000 C   0  0  0  0  0  0  0  0  0  0  0  0
    2.8579    0.0000    0.0000 C   0  0  0  0  0  0  0  0  0  0  0  0
    2.1434   -0.4125    0.0000 C   0  0  0  0  0  0  0  0  0  0  0  0
    2.1434   -1.2375    0.0000 O   0  0  0  0  0  0  0  0  0  0  0  0
    1.4289   -0.0000    0.0000 C   0  0  0  0  0  0  0  0  0  0  0  0
    0.7145   -0.4125    0.0000 C   0  0  0  0  0  0  0  0  0  0  0  0
   -0.0000    0.0000    0.0000 C   0  0  0  0  0  0  0  0  0  0  0  0
    0.0000    0.8250    0.0000 C   0  0  0  0  0  0  0  0  0  0  0  0
    0.7145    1.2375    0.0000 C   0  0  0  0  0  0  0  0  0  0  0  0
    1.4289    0.8250    0.0000 C   0  0  0  0  0  0  0  0  0  0  0  0
    2.1434    1.2375    0.0000 C   0  0  0  0  0  0  0  0  0  0  0  0
    2.1434    2.0625    0.0000 O   0  0  0  0  0  0  0  0  0  0  0  0
    4.7044   -1.2111    0.0000 C   0  0  0  0  0  0  0  0  0  0  0  0
    5.2564   -0.5980    0.0000 F   0  0  0  0  0  0  0  0  0  0  0  0
    4.9594   -1.9957    0.0000 C   0  0  0  0  0  0  0  0  0  0  0  0
    5.4692   -3.5650    0.0000 C   0  0  0  0  0  0  0  0  0  0  0  0
    5.7242   -4.3496    0.0000 C   0  0  0  0  0  0  0  0  0  0  0  0
  1  2  1  0  0  0  0
  2  3  1  0  0  0  0
  2  4  1  0  0  0  0
  4  5  4  0  0  0  0
  5  6  4  0  0  0  0
  6  7  4  0  0  0  0
  7  8  1  0  0  0  0
  8  9  4  0  0  0  0
  9 10  4  0  0  0  0
 10 11  4  0  0  0  0
 11 12  1  0  0  0  0
 12 13  4  0  0  0  0
 13 14  4  0  0  0  0
 14 15  4  0  0  0  0
 15 16  4  0  0  0  0
 12 16  4  0  0  0  0
 16 17  1  0  0  0  0
 17 18  2  0  0  0  0
 17 19  1  0  0  0  0
 19 20  4  0  0  0  0
 20 21  4  0  0  0  0
 21 22  4  0  0  0  0
 22 23  4  0  0  0  0
 23 24  4  0  0  0  0
 19 24  4  0  0  0  0
 24 25  1  0  0  0  0
 15 25  1  0  0  0  0
 25 26  2  0  0  0  0
 11 27  4  0  0  0  0
 27 28  1  0  0  0  0
 27 29  4  0  0  0  0
  8 29  4  0  0  0  0
  7 30  4  0  0  0  0
 30 31  4  0  0  0  0
  4 31  4  0  0  0  0
M  END
> <IC50(uM)>
1.0

> <Outcome>
1.0

> <BindingDB ID>
51338195

> <BindingDB MonomerID>
50541669

> <BindingDB Ligand Name>
CHEMBL4641412

> <Curation/DataSource>
ChEMBL

> <Article DOI>
10.1021/acs.jmedchem.0c00512

> <PMID>
32496056

> <Patent Number>
?

> <Authors>
Zuo, Z; Liu, X; Qian, X; Zeng, T; Sang, N; Liu, H; Zhou, Y; Tao, L; Zhou, X; Su, N; Yu, Y; Chen, Q; Luo, Y; Zhao, Y

> <Link to Ligand in BindingDB>
http://www.bindingdb.org/bind/chemsearch/marvin/MolStructure.jsp?monomerid=50541669

> <Link to Ligand-Target Pair in BindingDB>
http://www.bindingdb.org/jsp/dbsearch/PrimarySearch_ki.jsp?energyterm=kJ/mole&tag=r21&monomerid=50541669&enzyme=Dihydroorotate+dehydrogenase&column=ki&startPg=0&Increment=50&submit=Search

> <PubChem CID>
156016398

> <PubChem SID>
442143232

$$$$

  Mrv2115 07222212352D          

 32 34  0  0  0  0            999 V2000
    2.1434   -3.7125    0.0000 C   0  0  0  0  0  0  0  0  0  0  0  0
    2.8579   -4.1250    0.0000 C   0  0  0  0  0  0  0  0  0  0  0  0
    3.5724   -3.7125    0.0000 C   0  0  0  0  0  0  0  0  0  0  0  0
    4.2868   -4.1250    0.0000 C   0  0  0  0  0  0  0  0  0  0  0  0
    4.2868   -4.9500    0.0000 C   0  0  0  0  0  0  0  0  0  0  0  0
    5.0013   -3.7125    0.0000 O   0  0  0  0  0  0  0  0  0  0  0  0
    5.0013   -2.8875    0.0000 C   0  0  0  0  0  0  0  0  0  0  0  0
    4.2868   -2.4750    0.0000 C   0  0  0  0  0  0  0  0  0  0  0  0
    4.2868   -1.6500    0.0000 C   0  0  0  0  0  0  0  0  0  0  0  0
    3.5724   -1.2375    0.0000 N   0  0  0  0  0  0  0  0  0  0  0  0
    2.8187   -1.5731    0.0000 N   0  0  0  0  0  0  0  0  0  0  0  0
    2.2666   -0.9600    0.0000 C   0  0  0  0  0  0  0  0  0  0  0  0
    1.4462   -1.0462    0.0000 C   0  0  0  0  0  0  0  0  0  0  0  0
    1.1106   -1.7999    0.0000 C   0  0  0  0  0  0  0  0  0  0  0  0
    2.6791   -0.2455    0.0000 N   0  0  0  0  0  0  0  0  0  0  0  0
    2.3436    0.5082    0.0000 C   0  0  0  0  0  0  0  0  0  0  0  0
    3.4861   -0.4170    0.0000 C   0  0  0  0  0  0  0  0  0  0  0  0
    4.0992    0.1350    0.0000 O   0  0  0  0  0  0  0  0  0  0  0  0
    5.0013   -1.2375    0.0000 C   0  0  0  0  0  0  0  0  0  0  0  0
    5.0013   -0.4125    0.0000 F   0  0  0  0  0  0  0  0  0  0  0  0
    5.7158   -1.6500    0.0000 C   0  0  0  0  0  0  0  0  0  0  0  0
    5.7158   -2.4750    0.0000 C   0  0  0  0  0  0  0  0  0  0  0  0
    6.4302   -2.8875    0.0000 C   0  0  0  0  0  0  0  0  0  0  0  0
    6.4302   -3.7125    0.0000 O   0  0  0  0  0  0  0  0  0  0  0  0
    7.1447   -2.4750    0.0000 N   0  0  0  0  0  0  0  0  0  0  0  0
    7.8592   -2.8875    0.0000 C   0  0  0  0  0  0  0  0  0  0  0  0
    8.5737   -2.4750    0.0000 C   0  0  0  0  0  0  0  0  0  0  0  0
    9.2881   -2.8875    0.0000 C   0  0  0  0  0  0  0  0  0  0  0  0
    9.2881   -3.7125    0.0000 C   0  0  0  0  0  0  0  0  0  0  0  0
    8.5737   -4.1250    0.0000 C   0  0  0  0  0  0  0  0  0  0  0  0
    7.8592   -3.7125    0.0000 C   0  0  0  0  0  0  0  0  0  0  0  0
    7.1447   -4.1250    0.0000 O   0  0  0  0  0  0  0  0  0  0  0  0
  1  2  1  0  0  0  0
  2  3  1  0  0  0  0
  3  4  1  0  0  0  0
  4  5  1  0  0  0  0
  4  6  1  0  0  0  0
  6  7  1  0  0  0  0
  7  8  4  0  0  0  0
  8  9  4  0  0  0  0
  9 10  1  0  0  0  0
 10 11  4  0  0  0  0
 11 12  4  0  0  0  0
 12 13  1  0  0  0  0
 13 14  1  0  0  0  0
 12 15  4  0  0  0  0
 15 16  1  0  0  0  0
 15 17  4  0  0  0  0
 10 17  4  0  0  0  0
 17 18  2  0  0  0  0
  9 19  4  0  0  0  0
 19 20  1  0  0  0  0
 19 21  4  0  0  0  0
 21 22  4  0  0  0  0
  7 22  4  0  0  0  0
 22 23  1  0  0  0  0
 23 24  2  0  0  0  0
 23 25  1  0  0  0  0
 25 26  1  0  0  0  0
 26 27  4  0  0  0  0
 27 28  4  0  0  0  0
 28 29  4  0  0  0  0
 29 30  4  0  0  0  0
 30 31  4  0  0  0  0
 26 31  4  0  0  0  0
 31 32  1  0  0  0  0
M  END
> <IC50(uM)>
0.7994999999999999

> <Outcome>
1.0

> <BindingDB ID>
972484; 1098638; 972485; 1098639

> <BindingDB MonomerID>
470369

> <BindingDB Ligand Name>
4-(3-ethyl-4-methyl-5-oxo-4,5-dihydro-1H-1,2,4-triazol-1-yl)-5-fluoro-N-(2-hydroxyphenyl)-2-[(2S)-pentan-2-yloxy]benzamide::US10815215, Example 29; 4-(3-ethyl-4-methyl-5-oxo-4,5-dihydro-1H-1,2,4-triazol-1-yl)-5-fluoro-N-(2-hydroxyphenyl)-2-[(2S)-pentan-2-yloxy]benzamide::US10815215, Example 29::US11130745, Example 29

> <Curation/DataSource>
US Patent

> <Article DOI>
?

> <PMID>
?

> <Patent Number>
US10815215; US11130745

> <Authors>
Gradl, SN; Nguyen, D; Eis, K; Gunther, J; Stellfeld, T; Janzer, A; Christian, S; Muller, T; Sheikh, SE; Zhou, HJ; Zhao, C; Sykes, DB; Ferrara, SJ; Liu, K; Krober, M; Merz, C; Niehues, M; Schafer, M; Zimmermann, K; Nising, CF; Gradl, SN; Nguyen, D; Eis, K; Gunther, J; Stellfeld, T; Janzer, A; Christian, S; Muller, T; Sheikh, SE; Sykes, DB; Ferrara, SJ; Krober, M; Merz, C; Niehues, M; Schafer, M; Zimmermann, K; Nising, CF

> <Link to Ligand in BindingDB>
http://www.bindingdb.org/bind/chemsearch/marvin/MolStructure.jsp?monomerid=470369

> <Link to Ligand-Target Pair in BindingDB>
http://www.bindingdb.org/jsp/dbsearch/PrimarySearch_ki.jsp?energyterm=kJ/mole&tag=r21&monomerid=470369&enzyme=Dihydroorotate+dehydrogenase&column=ki&startPg=0&Increment=50&submit=Search

> <PubChem CID>
134470135

> <PubChem SID>
441609546

$$$$

  Mrv2115 07222212352D          

 34 36  0  0  0  0            999 V2000
    2.1434   -3.7125    0.0000 C   0  0  0  0  0  0  0  0  0  0  0  0
    2.8579   -4.1250    0.0000 C   0  0  0  0  0  0  0  0  0  0  0  0
    3.5724   -3.7125    0.0000 C   0  0  0  0  0  0  0  0  0  0  0  0
    4.2868   -4.1250    0.0000 C   0  0  0  0  0  0  0  0  0  0  0  0
    4.2868   -4.9500    0.0000 C   0  0  0  0  0  0  0  0  0  0  0  0
    5.0013   -3.7125    0.0000 O   0  0  0  0  0  0  0  0  0  0  0  0
    5.0013   -2.8875    0.0000 C   0  0  0  0  0  0  0  0  0  0  0  0
    4.2868   -2.4750    0.0000 C   0  0  0  0  0  0  0  0  0  0  0  0
    4.2868   -1.6500    0.0000 C   0  0  0  0  0  0  0  0  0  0  0  0
    3.5724   -1.2375    0.0000 N   0  0  0  0  0  0  0  0  0  0  0  0
    2.8187   -1.5731    0.0000 N   0  0  0  0  0  0  0  0  0  0  0  0
    2.2666   -0.9600    0.0000 C   0  0  0  0  0  0  0  0  0  0  0  0
    1.4462   -1.0462    0.0000 C   0  0  0  0  0  0  0  0  0  0  0  0
    2.6791   -0.2455    0.0000 N   0  0  0  0  0  0  0  0  0  0  0  0
    2.3436    0.5082    0.0000 C   0  0  0  0  0  0  0  0  0  0  0  0
    1.5231    0.5944    0.0000 C   0  0  0  0  0  0  0  0  0  0  0  0
    2.8285    1.1756    0.0000 C   0  0  0  0  0  0  0  0  0  0  0  0
    3.4861   -0.4170    0.0000 C   0  0  0  0  0  0  0  0  0  0  0  0
    4.0992    0.1350    0.0000 O   0  0  0  0  0  0  0  0  0  0  0  0
    5.0013   -1.2375    0.0000 C   0  0  0  0  0  0  0  0  0  0  0  0
    5.0013   -0.4125    0.0000 F   0  0  0  0  0  0  0  0  0  0  0  0
    5.7158   -1.6500    0.0000 C   0  0  0  0  0  0  0  0  0  0  0  0
    5.7158   -2.4750    0.0000 C   0  0  0  0  0  0  0  0  0  0  0  0
    6.4302   -2.8875    0.0000 C   0  0  0  0  0  0  0  0  0  0  0  0
    6.4302   -3.7125    0.0000 O   0  0  0  0  0  0  0  0  0  0  0  0
    7.1447   -2.4750    0.0000 N   0  0  0  0  0  0  0  0  0  0  0  0
    7.8592   -2.8875    0.0000 C   0  0  0  0  0  0  0  0  0  0  0  0
    8.5737   -2.4750    0.0000 C   0  0  0  0  0  0  0  0  0  0  0  0
    8.5737   -1.6500    0.0000 F   0  0  0  0  0  0  0  0  0  0  0  0
    9.2881   -2.8875    0.0000 C   0  0  0  0  0  0  0  0  0  0  0  0
    9.2881   -3.7125    0.0000 C   0  0  0  0  0  0  0  0  0  0  0  0
    8.5737   -4.1250    0.0000 C   0  0  0  0  0  0  0  0  0  0  0  0
    7.8592   -3.7125    0.0000 C   0  0  0  0  0  0  0  0  0  0  0  0
    7.1447   -4.1250    0.0000 F   0  0  0  0  0  0  0  0  0  0  0  0
  1  2  1  0  0  0  0
  2  3  1  0  0  0  0
  3  4  1  0  0  0  0
  4  5  1  0  0  0  0
  4  6  1  0  0  0  0
  6  7  1  0  0  0  0
  7  8  4  0  0  0  0
  8  9  4  0  0  0  0
  9 10  1  0  0  0  0
 10 11  4  0  0  0  0
 11 12  4  0  0  0  0
 12 13  1  0  0  0  0
 12 14  4  0  0  0  0
 14 15  1  0  0  0  0
 15 16  1  0  0  0  0
 15 17  1  0  0  0  0
 14 18  4  0  0  0  0
 10 18  4  0  0  0  0
 18 19  2  0  0  0  0
  9 20  4  0  0  0  0
 20 21  1  0  0  0  0
 20 22  4  0  0  0  0
 22 23  4  0  0  0  0
  7 23  4  0  0  0  0
 23 24  1  0  0  0  0
 24 25  2  0  0  0  0
 24 26  1  0  0  0  0
 26 27  1  0  0  0  0
 27 28  4  0  0  0  0
 28 29  1  0  0  0  0
 28 30  4  0  0  0  0
 30 31  4  0  0  0  0
 31 32  4  0  0  0  0
 32 33  4  0  0  0  0
 27 33  4  0  0  0  0
 33 34  1  0  0  0  0
M  END
> <IC50(uM)>
0.0585

> <Outcome>
1.0

> <BindingDB ID>
1098608; 972454; 972453; 1098607

> <BindingDB MonomerID>
470350

> <BindingDB Ligand Name>
N-(2,6-difluorophenyl)-5-fluoro-4-[3-methyl-5-oxo-4-(propan-2-yl)-4,5-dihydro-1H-1,2,4-triazol-1-yl]-2-[(2S)-pentan-2-yloxy]benzamide::US10815215, Example 12::US11130745, Example 12; N-(2,6-difluorophenyl)-5-fluoro-4-[3-methyl-5-oxo-4-(propan-2-yl)-4,5-dihydro-1H-1,2,4-triazol-1-yl]-2-[(2S)-pentan-2-yloxy]benzamide::US10815215, Example 12

> <Curation/DataSource>
US Patent

> <Article DOI>
?

> <PMID>
?

> <Patent Number>
US11130745; US10815215

> <Authors>
Gradl, SN; Nguyen, D; Eis, K; Gunther, J; Stellfeld, T; Janzer, A; Christian, S; Muller, T; Sheikh, SE; Sykes, DB; Ferrara, SJ; Krober, M; Merz, C; Niehues, M; Schafer, M; Zimmermann, K; Nising, CF; Gradl, SN; Nguyen, D; Eis, K; Gunther, J; Stellfeld, T; Janzer, A; Christian, S; Muller, T; Sheikh, SE; Zhou, HJ; Zhao, C; Sykes, DB; Ferrara, SJ; Liu, K; Krober, M; Merz, C; Niehues, M; Schafer, M; Zimmermann, K; Nising, CF

> <Link to Ligand in BindingDB>
http://www.bindingdb.org/bind/chemsearch/marvin/MolStructure.jsp?monomerid=470350

> <Link to Ligand-Target Pair in BindingDB>
http://www.bindingdb.org/jsp/dbsearch/PrimarySearch_ki.jsp?energyterm=kJ/mole&tag=r21&monomerid=470350&enzyme=Dihydroorotate+dehydrogenase&column=ki&startPg=0&Increment=50&submit=Search

> <PubChem CID>
134469814

> <PubChem SID>
441609527

$$$$

  Mrv2115 07222212352D          

 36 39  0  0  0  0            999 V2000
   -3.1034    2.1599    0.0000 C   0  0  0  0  0  0  0  0  0  0  0  0
   -2.6909    1.4455    0.0000 C   0  0  0  0  0  0  0  0  0  0  0  0
   -3.1034    0.7310    0.0000 O   0  0  0  0  0  0  0  0  0  0  0  0
   -2.6909    0.0165    0.0000 C   0  0  0  0  0  0  0  0  0  0  0  0
   -1.8659    0.0165    0.0000 C   0  0  0  0  0  0  0  0  0  0  0  0
   -1.4534   -0.6979    0.0000 C   0  0  0  0  0  0  0  0  0  0  0  0
   -0.6284   -0.6979    0.0000 N   0  0  0  0  0  0  0  0  0  0  0  0
   -0.1435   -1.3654    0.0000 N   0  0  0  0  0  0  0  0  0  0  0  0
    0.6411   -1.1104    0.0000 C   0  0  0  0  0  0  0  0  0  0  0  0
    0.6411   -0.2854    0.0000 N   0  0  0  0  0  0  0  0  0  0  0  0
   -0.1435   -0.0305    0.0000 C   0  0  0  0  0  0  0  0  0  0  0  0
   -0.3984    0.7541    0.0000 O   0  0  0  0  0  0  0  0  0  0  0  0
    1.3556    0.1271    0.0000 C   0  0  0  0  0  0  0  0  0  0  0  0
    2.0701   -0.2854    0.0000 C   0  0  0  0  0  0  0  0  0  0  0  0
    2.0701   -1.1104    0.0000 C   0  0  0  0  0  0  0  0  0  0  0  0
    1.3556   -1.5229    0.0000 C   0  0  0  0  0  0  0  0  0  0  0  0
   -1.8659   -1.4124    0.0000 C   0  0  0  0  0  0  0  0  0  0  0  0
   -1.4534   -2.1269    0.0000 F   0  0  0  0  0  0  0  0  0  0  0  0
   -2.6909   -1.4124    0.0000 C   0  0  0  0  0  0  0  0  0  0  0  0
   -3.1034   -0.6979    0.0000 C   0  0  0  0  0  0  0  0  0  0  0  0
   -3.9284   -0.6979    0.0000 C   0  0  0  0  0  0  0  0  0  0  0  0
   -4.3409    0.0165    0.0000 O   0  0  0  0  0  0  0  0  0  0  0  0
   -4.3409   -1.4124    0.0000 N   0  0  0  0  0  0  0  0  0  0  0  0
   -5.1659   -1.4124    0.0000 C   0  0  0  0  0  0  0  0  0  0  0  0
   -5.5784   -2.1269    0.0000 C   0  0  0  0  0  0  0  0  0  0  0  0
   -5.1659   -2.8414    0.0000 F   0  0  0  0  0  0  0  0  0  0  0  0
   -6.4034   -2.1269    0.0000 C   0  0  0  0  0  0  0  0  0  0  0  0
   -6.8159   -1.4124    0.0000 C   0  0  0  0  0  0  0  0  0  0  0  0
   -7.6409   -1.4124    0.0000 F   0  0  0  0  0  0  0  0  0  0  0  0
   -6.4034   -0.6979    0.0000 C   0  0  0  0  0  0  0  0  0  0  0  0
   -5.5784   -0.6979    0.0000 C   0  0  0  0  0  0  0  0  0  0  0  0
   -5.1659    0.0165    0.0000 Cl  0  0  0  0  0  0  0  0  0  0  0  0
   -1.8659    1.4455    0.0000 C   0  0  0  0  0  0  0  0  0  0  0  0
   -1.8659    0.6205    0.0000 F   0  0  0  0  0  0  0  0  0  0  0  0
   -1.8659    2.2705    0.0000 F   0  0  0  0  0  0  0  0  0  0  0  0
   -1.0409    1.4455    0.0000 F   0  0  0  0  0  0  0  0  0  0  0  0
  1  2  1  0  0  0  0
  2  3  1  0  0  0  0
  3  4  1  0  0  0  0
  4  5  4  0  0  0  0
  5  6  4  0  0  0  0
  6  7  1  0  0  0  0
  7  8  4  0  0  0  0
  8  9  4  0  0  0  0
  9 10  4  0  0  0  0
 10 11  4  0  0  0  0
  7 11  4  0  0  0  0
 11 12  2  0  0  0  0
 10 13  1  0  0  0  0
 13 14  1  0  0  0  0
 14 15  1  0  0  0  0
 15 16  1  0  0  0  0
  9 16  1  0  0  0  0
  6 17  4  0  0  0  0
 17 18  1  0  0  0  0
 17 19  4  0  0  0  0
 19 20  4  0  0  0  0
  4 20  4  0  0  0  0
 20 21  1  0  0  0  0
 21 22  2  0  0  0  0
 21 23  1  0  0  0  0
 23 24  1  0  0  0  0
 24 25  4  0  0  0  0
 25 26  1  0  0  0  0
 25 27  4  0  0  0  0
 27 28  4  0  0  0  0
 28 29  1  0  0  0  0
 28 30  4  0  0  0  0
 30 31  4  0  0  0  0
 24 31  4  0  0  0  0
 31 32  1  0  0  0  0
  2 33  1  0  0  0  0
 33 34  1  0  0  0  0
 33 35  1  0  0  0  0
 33 36  1  0  0  0  0
M  END
> <IC50(uM)>
0.0085

> <Outcome>
1.0

> <BindingDB ID>
1020444

> <BindingDB MonomerID>
490395

> <BindingDB Ligand Name>
N-(2-chloro-4,6-difluorophenyl)-5-fluoro-4-(3-oxo-5,6,7,8-tetrahydro[1,2,4]triazolo[4,3-a]pyridin-2(3H)-yl)-2-{[(2S)-1,1,1-trifluoropropan-2-yl]oxy}benzamide::US10968216, Example 63

> <Curation/DataSource>
US Patent

> <Article DOI>
?

> <PMID>
?

> <Patent Number>
US10968216

> <Authors>
Gradl, SN; Nguyen, D; Eis, K; Gunther, J; Stellfeld, T; Janzer, A; Christian, S; Mueller, T; Sheikh, SE; Zhou, HJ; Zhao, C; Sykes, DB; Ferrara, SJ; Liu, K; Herbert, SA; Merz, C; Niehues, M; Nising, CF; Schafer, M; Zimmermann, K; Knablein, J; Thede, K; Faupel, T

> <Link to Ligand in BindingDB>
http://www.bindingdb.org/bind/chemsearch/marvin/MolStructure.jsp?monomerid=490395

> <Link to Ligand-Target Pair in BindingDB>
http://www.bindingdb.org/jsp/dbsearch/PrimarySearch_ki.jsp?energyterm=kJ/mole&tag=r21&monomerid=490395&enzyme=Dihydroorotate+dehydrogenase&column=ki&startPg=0&Increment=50&submit=Search

> <PubChem CID>
134474335

> <PubChem SID>
447117122

$$$$

  Mrv2115 07222212352D          

 36 39  0  0  0  0            999 V2000
   -3.1034    2.1599    0.0000 C   0  0  0  0  0  0  0  0  0  0  0  0
   -2.6909    1.4455    0.0000 C   0  0  0  0  0  0  0  0  0  0  0  0
   -3.1034    0.7310    0.0000 O   0  0  0  0  0  0  0  0  0  0  0  0
   -2.6909    0.0165    0.0000 C   0  0  0  0  0  0  0  0  0  0  0  0
   -1.8659    0.0165    0.0000 C   0  0  0  0  0  0  0  0  0  0  0  0
   -1.4534   -0.6979    0.0000 C   0  0  0  0  0  0  0  0  0  0  0  0
   -0.6284   -0.6979    0.0000 N   0  0  0  0  0  0  0  0  0  0  0  0
   -0.1435   -1.3654    0.0000 N   0  0  0  0  0  0  0  0  0  0  0  0
    0.6411   -1.1104    0.0000 C   0  0  0  0  0  0  0  0  0  0  0  0
    0.6411   -0.2854    0.0000 N   0  0  0  0  0  0  0  0  0  0  0  0
   -0.1435   -0.0305    0.0000 C   0  0  0  0  0  0  0  0  0  0  0  0
   -0.3984    0.7541    0.0000 O   0  0  0  0  0  0  0  0  0  0  0  0
    1.3556    0.1271    0.0000 C   0  0  0  0  0  0  0  0  0  0  0  0
    2.0701   -0.2854    0.0000 C   0  0  0  0  0  0  0  0  0  0  0  0
    2.0701   -1.1104    0.0000 C   0  0  0  0  0  0  0  0  0  0  0  0
    1.3556   -1.5229    0.0000 C   0  0  0  0  0  0  0  0  0  0  0  0
   -1.8659   -1.4124    0.0000 C   0  0  0  0  0  0  0  0  0  0  0  0
   -1.4534   -2.1269    0.0000 F   0  0  0  0  0  0  0  0  0  0  0  0
   -2.6909   -1.4124    0.0000 C   0  0  0  0  0  0  0  0  0  0  0  0
   -3.1034   -0.6979    0.0000 C   0  0  0  0  0  0  0  0  0  0  0  0
   -3.9284   -0.6979    0.0000 C   0  0  0  0  0  0  0  0  0  0  0  0
   -4.3409    0.0165    0.0000 O   0  0  0  0  0  0  0  0  0  0  0  0
   -4.3409   -1.4124    0.0000 N   0  0  0  0  0  0  0  0  0  0  0  0
   -5.1659   -1.4124    0.0000 C   0  0  0  0  0  0  0  0  0  0  0  0
   -5.5784   -2.1269    0.0000 C   0  0  0  0  0  0  0  0  0  0  0  0
   -6.4034   -2.1269    0.0000 C   0  0  0  0  0  0  0  0  0  0  0  0
   -6.8159   -1.4124    0.0000 C   0  0  0  0  0  0  0  0  0  0  0  0
   -7.6409   -1.4124    0.0000 F   0  0  0  0  0  0  0  0  0  0  0  0
   -6.4034   -0.6979    0.0000 C   0  0  0  0  0  0  0  0  0  0  0  0
   -5.5784   -0.6979    0.0000 C   0  0  0  0  0  0  0  0  0  0  0  0
   -5.1659    0.0165    0.0000 C   0  0  0  0  0  0  0  0  0  0  0  0
   -4.7534    0.7310    0.0000 N   0  0  0  0  0  0  0  0  0  0  0  0
   -1.8659    1.4455    0.0000 C   0  0  0  0  0  0  0  0  0  0  0  0
   -1.8659    0.6205    0.0000 F   0  0  0  0  0  0  0  0  0  0  0  0
   -1.8659    2.2705    0.0000 F   0  0  0  0  0  0  0  0  0  0  0  0
   -1.0409    1.4455    0.0000 F   0  0  0  0  0  0  0  0  0  0  0  0
  1  2  1  0  0  0  0
  2  3  1  0  0  0  0
  3  4  1  0  0  0  0
  4  5  4  0  0  0  0
  5  6  4  0  0  0  0
  6  7  1  0  0  0  0
  7  8  4  0  0  0  0
  8  9  4  0  0  0  0
  9 10  4  0  0  0  0
 10 11  4  0  0  0  0
  7 11  4  0  0  0  0
 11 12  2  0  0  0  0
 10 13  1  0  0  0  0
 13 14  1  0  0  0  0
 14 15  1  0  0  0  0
 15 16  1  0  0  0  0
  9 16  1  0  0  0  0
  6 17  4  0  0  0  0
 17 18  1  0  0  0  0
 17 19  4  0  0  0  0
 19 20  4  0  0  0  0
  4 20  4  0  0  0  0
 20 21  1  0  0  0  0
 21 22  2  0  0  0  0
 21 23  1  0  0  0  0
 23 24  1  0  0  0  0
 24 25  4  0  0  0  0
 25 26  4  0  0  0  0
 26 27  4  0  0  0  0
 27 28  1  0  0  0  0
 27 29  4  0  0  0  0
 29 30  4  0  0  0  0
 24 30  4  0  0  0  0
 30 31  1  0  0  0  0
 31 32  3  0  0  0  0
  2 33  1  0  0  0  0
 33 34  1  0  0  0  0
 33 35  1  0  0  0  0
 33 36  1  0  0  0  0
M  END
> <IC50(uM)>
0.11

> <Outcome>
1.0

> <BindingDB ID>
1020429

> <BindingDB MonomerID>
490380

> <BindingDB Ligand Name>
N-(2-cyano-4-fluorophenyl)-5-fluoro-4-(3-oxo-5,6,7,8-tetrahydro[1,2,4]triazolo[4,3-a]pyridin-2(3H)-yl)-2-{[(2S)-1,1,1-trifluoropropan-2-yl]oxy}benzamide::US10968216, Example 48

> <Curation/DataSource>
US Patent

> <Article DOI>
?

> <PMID>
?

> <Patent Number>
US10968216

> <Authors>
Gradl, SN; Nguyen, D; Eis, K; Gunther, J; Stellfeld, T; Janzer, A; Christian, S; Mueller, T; Sheikh, SE; Zhou, HJ; Zhao, C; Sykes, DB; Ferrara, SJ; Liu, K; Herbert, SA; Merz, C; Niehues, M; Nising, CF; Schafer, M; Zimmermann, K; Knablein, J; Thede, K; Faupel, T

> <Link to Ligand in BindingDB>
http://www.bindingdb.org/bind/chemsearch/marvin/MolStructure.jsp?monomerid=490380

> <Link to Ligand-Target Pair in BindingDB>
http://www.bindingdb.org/jsp/dbsearch/PrimarySearch_ki.jsp?energyterm=kJ/mole&tag=r21&monomerid=490380&enzyme=Dihydroorotate+dehydrogenase&column=ki&startPg=0&Increment=50&submit=Search

> <PubChem CID>
134474279

> <PubChem SID>
447117107

$$$$

  Mrv2115 07222212352D          

 34 37  0  0  0  0            999 V2000
   -0.6284    2.1599    0.0000 C   0  0  0  0  0  0  0  0  0  0  0  0
   -1.4534    2.1599    0.0000 C   0  0  0  0  0  0  0  0  0  0  0  0
   -1.8659    1.4455    0.0000 C   0  0  0  0  0  0  0  0  0  0  0  0
   -2.6909    1.4455    0.0000 C   0  0  0  0  0  0  0  0  0  0  0  0
   -3.1034    2.1599    0.0000 C   0  0  0  0  0  0  0  0  0  0  0  0
   -3.1034    0.7310    0.0000 O   0  0  0  0  0  0  0  0  0  0  0  0
   -2.6909    0.0165    0.0000 C   0  0  0  0  0  0  0  0  0  0  0  0
   -1.8659    0.0165    0.0000 C   0  0  0  0  0  0  0  0  0  0  0  0
   -1.4534   -0.6979    0.0000 C   0  0  0  0  0  0  0  0  0  0  0  0
   -0.6284   -0.6979    0.0000 N   0  0  0  0  0  0  0  0  0  0  0  0
   -0.1435   -1.3654    0.0000 N   0  0  0  0  0  0  0  0  0  0  0  0
    0.6411   -1.1104    0.0000 C   0  0  0  0  0  0  0  0  0  0  0  0
    0.6411   -0.2854    0.0000 N   0  0  0  0  0  0  0  0  0  0  0  0
   -0.1435   -0.0305    0.0000 C   0  0  0  0  0  0  0  0  0  0  0  0
   -0.3984    0.7541    0.0000 O   0  0  0  0  0  0  0  0  0  0  0  0
    1.3556    0.1271    0.0000 C   0  0  0  0  0  0  0  0  0  0  0  0
    2.0701   -0.2854    0.0000 C   0  0  0  0  0  0  0  0  0  0  0  0
    2.0701   -1.1104    0.0000 C   0  0  0  0  0  0  0  0  0  0  0  0
    1.3556   -1.5229    0.0000 C   0  0  0  0  0  0  0  0  0  0  0  0
   -1.8659   -1.4124    0.0000 C   0  0  0  0  0  0  0  0  0  0  0  0
   -1.4534   -2.1269    0.0000 F   0  0  0  0  0  0  0  0  0  0  0  0
   -2.6909   -1.4124    0.0000 C   0  0  0  0  0  0  0  0  0  0  0  0
   -3.1034   -0.6979    0.0000 C   0  0  0  0  0  0  0  0  0  0  0  0
   -3.9284   -0.6979    0.0000 C   0  0  0  0  0  0  0  0  0  0  0  0
   -4.3409    0.0165    0.0000 O   0  0  0  0  0  0  0  0  0  0  0  0
   -4.3409   -1.4124    0.0000 N   0  0  0  0  0  0  0  0  0  0  0  0
   -3.9284   -2.1269    0.0000 C   0  0  0  0  0  0  0  0  0  0  0  0
   -3.1034   -2.1269    0.0000 C   0  0  0  0  0  0  0  0  0  0  0  0
   -2.6909   -2.8414    0.0000 C   0  0  0  0  0  0  0  0  0  0  0  0
   -3.1034   -3.5558    0.0000 C   0  0  0  0  0  0  0  0  0  0  0  0
   -2.6909   -4.2703    0.0000 F   0  0  0  0  0  0  0  0  0  0  0  0
   -3.9284   -3.5558    0.0000 C   0  0  0  0  0  0  0  0  0  0  0  0
   -4.3409   -2.8414    0.0000 C   0  0  0  0  0  0  0  0  0  0  0  0
   -5.1659   -2.8414    0.0000 C   0  0  0  0  0  0  0  0  0  0  0  0
  1  2  1  0  0  0  0
  2  3  1  0  0  0  0
  3  4  1  0  0  0  0
  4  5  1  0  0  0  0
  4  6  1  0  0  0  0
  6  7  1  0  0  0  0
  7  8  4  0  0  0  0
  8  9  4  0  0  0  0
  9 10  1  0  0  0  0
 10 11  4  0  0  0  0
 11 12  4  0  0  0  0
 12 13  4  0  0  0  0
 13 14  4  0  0  0  0
 10 14  4  0  0  0  0
 14 15  2  0  0  0  0
 13 16  1  0  0  0  0
 16 17  1  0  0  0  0
 17 18  1  0  0  0  0
 18 19  1  0  0  0  0
 12 19  1  0  0  0  0
  9 20  4  0  0  0  0
 20 21  1  0  0  0  0
 20 22  4  0  0  0  0
 22 23  4  0  0  0  0
  7 23  4  0  0  0  0
 23 24  1  0  0  0  0
 24 25  2  0  0  0  0
 24 26  1  0  0  0  0
 26 27  1  0  0  0  0
 27 28  4  0  0  0  0
 28 29  4  0  0  0  0
 29 30  4  0  0  0  0
 30 31  1  0  0  0  0
 30 32  4  0  0  0  0
 32 33  4  0  0  0  0
 27 33  4  0  0  0  0
 33 34  1  0  0  0  0
M  END
> <IC50(uM)>
0.0045

> <Outcome>
1.0

> <BindingDB ID>
1020384

> <BindingDB MonomerID>
490340

> <BindingDB Ligand Name>
5-fluoro-N-(4-fluoro-2-methylphenyl)-4-(3-oxo-5,6,7,8-tetrahydro[1,2,4]triazolo[4,3-a]pyridin-2(3H)-yl)-2-[(2S)-pentan-2-yloxy]benzamide::US10968216, Example 8

> <Curation/DataSource>
US Patent

> <Article DOI>
?

> <PMID>
?

> <Patent Number>
US10968216

> <Authors>
Gradl, SN; Nguyen, D; Eis, K; Gunther, J; Stellfeld, T; Janzer, A; Christian, S; Mueller, T; Sheikh, SE; Zhou, HJ; Zhao, C; Sykes, DB; Ferrara, SJ; Liu, K; Herbert, SA; Merz, C; Niehues, M; Nising, CF; Schafer, M; Zimmermann, K; Knablein, J; Thede, K; Faupel, T

> <Link to Ligand in BindingDB>
http://www.bindingdb.org/bind/chemsearch/marvin/MolStructure.jsp?monomerid=490340

> <Link to Ligand-Target Pair in BindingDB>
http://www.bindingdb.org/jsp/dbsearch/PrimarySearch_ki.jsp?energyterm=kJ/mole&tag=r21&monomerid=490340&enzyme=Dihydroorotate+dehydrogenase&column=ki&startPg=0&Increment=50&submit=Search

> <PubChem CID>
134474082

> <PubChem SID>
447117067

$$$$

  Mrv2115 07222212352D          

 22 23  0  0  0  0            999 V2000
    2.0367    0.3509    0.0000 C   0  0  0  0  0  0  0  0  0  0  0  0
    2.0367   -0.4741    0.0000 C   0  0  0  0  0  0  0  0  0  0  0  0
    1.2117   -0.4741    0.0000 C   0  0  0  0  0  0  0  0  0  0  0  0
    2.8617   -0.4741    0.0000 C   0  0  0  0  0  0  0  0  0  0  0  0
    2.0367   -1.2991    0.0000 C   0  0  0  0  0  0  0  0  0  0  0  0
    2.7041   -1.7840    0.0000 N   0  0  0  0  0  0  0  0  0  0  0  0
    2.4492   -2.5687    0.0000 N   0  0  0  0  0  0  0  0  0  0  0  0
    1.6242   -2.5687    0.0000 C   0  0  0  0  0  0  0  0  0  0  0  0
    1.1393   -3.2361    0.0000 N   0  0  0  0  0  0  0  0  0  0  0  0
    0.3188   -3.1499    0.0000 C   0  0  0  0  0  0  0  0  0  0  0  0
   -0.1661   -3.8173    0.0000 C   0  0  0  0  0  0  0  0  0  0  0  0
   -0.9866   -3.7311    0.0000 C   0  0  0  0  0  0  0  0  0  0  0  0
   -1.3222   -2.9774    0.0000 C   0  0  0  0  0  0  0  0  0  0  0  0
   -2.1426   -2.8911    0.0000 C   0  0  0  0  0  0  0  0  0  0  0  0
   -2.9631   -2.8049    0.0000 F   0  0  0  0  0  0  0  0  0  0  0  0
   -2.0564   -2.0707    0.0000 F   0  0  0  0  0  0  0  0  0  0  0  0
   -2.2289   -3.7116    0.0000 F   0  0  0  0  0  0  0  0  0  0  0  0
   -0.8372   -2.3099    0.0000 C   0  0  0  0  0  0  0  0  0  0  0  0
   -0.0168   -2.3962    0.0000 C   0  0  0  0  0  0  0  0  0  0  0  0
    1.3693   -1.7840    0.0000 C   0  0  0  0  0  0  0  0  0  0  0  0
    0.5846   -1.5291    0.0000 C   0  0  0  0  0  0  0  0  0  0  0  0
   -0.2000   -1.2742    0.0000 N   0  0  0  0  0  0  0  0  0  0  0  0
  1  2  1  0  0  0  0
  2  3  1  0  0  0  0
  2  4  1  0  0  0  0
  2  5  1  0  0  0  0
  5  6  4  0  0  0  0
  6  7  4  0  0  0  0
  7  8  4  0  0  0  0
  8  9  1  0  0  0  0
  9 10  1  0  0  0  0
 10 11  4  0  0  0  0
 11 12  4  0  0  0  0
 12 13  4  0  0  0  0
 13 14  1  0  0  0  0
 14 15  1  0  0  0  0
 14 16  1  0  0  0  0
 14 17  1  0  0  0  0
 13 18  4  0  0  0  0
 18 19  4  0  0  0  0
 10 19  4  0  0  0  0
  8 20  4  0  0  0  0
  5 20  4  0  0  0  0
 20 21  1  0  0  0  0
 21 22  3  0  0  0  0
M  STY  1   1 DAT
M  SAL   1  1   7
M  SDT   1 MRV_IMPLICIT_H                                        
M  SDD   1     0.5304   -0.4125    DR    ALL  0       0  
M  SED   1 IMPL_H1
M  END
> <IC50(uM)>
50.0

> <Outcome>
0.0

> <BindingDB ID>
50786773

> <BindingDB MonomerID>
50066596

> <BindingDB Ligand Name>
5-tert-Butyl-3-(4-trifluoromethyl-phenylamino)-1H-pyrazole-4-carbonitrile::CHEMBL118586

> <Curation/DataSource>
ChEMBL

> <Article DOI>
10.1021/jm981028c

> <PMID>
9719606

> <Patent Number>
?

> <Authors>
Papageorgiou, C; Albert, R; Floersheim, P; Lemaire, M; Bitch, F; Weber, HP; Andersen, E; Hungerford, V; Schreier, MH

> <Link to Ligand in BindingDB>
http://www.bindingdb.org/bind/chemsearch/marvin/MolStructure.jsp?monomerid=50066596

> <Link to Ligand-Target Pair in BindingDB>
http://www.bindingdb.org/jsp/dbsearch/PrimarySearch_ki.jsp?energyterm=kJ/mole&tag=r21&monomerid=50066596&enzyme=Dihydroorotate+dehydrogenase&column=ki&startPg=0&Increment=50&submit=Search

> <PubChem CID>
10828593

> <PubChem SID>
103961216

$$$$

  Mrv2115 07222212352D          

 28 32  0  0  0  0            999 V2000
    5.4271   -5.7473    0.0000 N   0  0  0  0  0  0  0  0  0  0  0  0
    5.1721   -4.9627    0.0000 C   0  0  0  0  0  0  0  0  0  0  0  0
    4.3652   -4.7911    0.0000 C   0  0  0  0  0  0  0  0  0  0  0  0
    4.1102   -4.0065    0.0000 C   0  0  0  0  0  0  0  0  0  0  0  0
    4.6623   -3.3934    0.0000 C   0  0  0  0  0  0  0  0  0  0  0  0
    4.4073   -2.6088    0.0000 C   0  0  0  0  0  0  0  0  0  0  0  0
    3.6004   -2.4373    0.0000 C   0  0  0  0  0  0  0  0  0  0  0  0
    3.3454   -1.6527    0.0000 C   0  0  0  0  0  0  0  0  0  0  0  0
    3.8974   -1.0396    0.0000 C   0  0  0  0  0  0  0  0  0  0  0  0
    3.6425   -0.2549    0.0000 N   0  0  0  0  0  0  0  0  0  0  0  0
    4.1274    0.4125    0.0000 N   0  0  0  0  0  0  0  0  0  0  0  0
    3.6425    1.0799    0.0000 N   0  0  0  0  0  0  0  0  0  0  0  0
    2.8579    0.8250    0.0000 C   0  0  0  0  0  0  0  0  0  0  0  0
    2.8579    0.0000    0.0000 C   0  0  0  0  0  0  0  0  0  0  0  0
    2.1434   -0.4125    0.0000 C   0  0  0  0  0  0  0  0  0  0  0  0
    2.1434   -1.2375    0.0000 O   0  0  0  0  0  0  0  0  0  0  0  0
    1.4289   -0.0000    0.0000 C   0  0  0  0  0  0  0  0  0  0  0  0
    0.7145   -0.4125    0.0000 C   0  0  0  0  0  0  0  0  0  0  0  0
   -0.0000    0.0000    0.0000 C   0  0  0  0  0  0  0  0  0  0  0  0
    0.0000    0.8250    0.0000 C   0  0  0  0  0  0  0  0  0  0  0  0
    0.7145    1.2375    0.0000 C   0  0  0  0  0  0  0  0  0  0  0  0
    1.4289    0.8250    0.0000 C   0  0  0  0  0  0  0  0  0  0  0  0
    2.1434    1.2375    0.0000 C   0  0  0  0  0  0  0  0  0  0  0  0
    2.1434    2.0625    0.0000 O   0  0  0  0  0  0  0  0  0  0  0  0
    4.7044   -1.2111    0.0000 C   0  0  0  0  0  0  0  0  0  0  0  0
    4.9594   -1.9957    0.0000 C   0  0  0  0  0  0  0  0  0  0  0  0
    5.4692   -3.5650    0.0000 C   0  0  0  0  0  0  0  0  0  0  0  0
    5.7242   -4.3496    0.0000 C   0  0  0  0  0  0  0  0  0  0  0  0
  1  2  1  0  0  0  0
  2  3  4  0  0  0  0
  3  4  4  0  0  0  0
  4  5  4  0  0  0  0
  5  6  1  0  0  0  0
  6  7  4  0  0  0  0
  7  8  4  0  0  0  0
  8  9  4  0  0  0  0
  9 10  1  0  0  0  0
 10 11  4  0  0  0  0
 11 12  4  0  0  0  0
 12 13  4  0  0  0  0
 13 14  4  0  0  0  0
 10 14  4  0  0  0  0
 14 15  1  0  0  0  0
 15 16  2  0  0  0  0
 15 17  1  0  0  0  0
 17 18  4  0  0  0  0
 18 19  4  0  0  0  0
 19 20  4  0  0  0  0
 20 21  4  0  0  0  0
 21 22  4  0  0  0  0
 17 22  4  0  0  0  0
 22 23  1  0  0  0  0
 13 23  1  0  0  0  0
 23 24  2  0  0  0  0
  9 25  4  0  0  0  0
 25 26  4  0  0  0  0
  6 26  4  0  0  0  0
  5 27  4  0  0  0  0
 27 28  4  0  0  0  0
  2 28  4  0  0  0  0
M  END
> <IC50(uM)>
0.025

> <Outcome>
1.0

> <BindingDB ID>
51338185

> <BindingDB MonomerID>
50541659

> <BindingDB Ligand Name>
CHEMBL4635090

> <Curation/DataSource>
ChEMBL

> <Article DOI>
10.1021/acs.jmedchem.0c00512

> <PMID>
32496056

> <Patent Number>
?

> <Authors>
Zuo, Z; Liu, X; Qian, X; Zeng, T; Sang, N; Liu, H; Zhou, Y; Tao, L; Zhou, X; Su, N; Yu, Y; Chen, Q; Luo, Y; Zhao, Y

> <Link to Ligand in BindingDB>
http://www.bindingdb.org/bind/chemsearch/marvin/MolStructure.jsp?monomerid=50541659

> <Link to Ligand-Target Pair in BindingDB>
http://www.bindingdb.org/jsp/dbsearch/PrimarySearch_ki.jsp?energyterm=kJ/mole&tag=r21&monomerid=50541659&enzyme=Dihydroorotate+dehydrogenase&column=ki&startPg=0&Increment=50&submit=Search

> <PubChem CID>
156014694

> <PubChem SID>
442143222

$$$$

  Mrv2115 07222212352D          

 26 29  0  0  0  0            999 V2000
   -0.1712   -0.6979    0.0000 C   0  0  0  0  0  0  0  0  0  0  0  0
    0.6538   -0.6979    0.0000 C   0  0  0  0  0  0  0  0  0  0  0  0
    1.1387   -0.0305    0.0000 N   0  0  0  0  0  0  0  0  0  0  0  0
    1.9233   -0.2854    0.0000 C   0  0  0  0  0  0  0  0  0  0  0  0
    2.6378    0.1271    0.0000 C   0  0  0  0  0  0  0  0  0  0  0  0
    2.6378    0.9521    0.0000 C   0  0  0  0  0  0  0  0  0  0  0  0
    3.3523    1.3646    0.0000 O   0  0  0  0  0  0  0  0  0  0  0  0
    1.9233    1.3646    0.0000 O   0  0  0  0  0  0  0  0  0  0  0  0
    3.3523   -0.2854    0.0000 C   0  0  0  0  0  0  0  0  0  0  0  0
    3.3523   -1.1104    0.0000 C   0  0  0  0  0  0  0  0  0  0  0  0
    4.0668   -1.5229    0.0000 C   0  0  0  0  0  0  0  0  0  0  0  0
    4.7812   -1.1104    0.0000 C   0  0  0  0  0  0  0  0  0  0  0  0
    5.4957   -1.5229    0.0000 C   0  0  0  0  0  0  0  0  0  0  0  0
    5.4957   -2.3479    0.0000 C   0  0  0  0  0  0  0  0  0  0  0  0
    6.2102   -2.7604    0.0000 C   0  0  0  0  0  0  0  0  0  0  0  0
    6.9246   -2.3479    0.0000 C   0  0  0  0  0  0  0  0  0  0  0  0
    7.6391   -2.7604    0.0000 C   0  0  0  0  0  0  0  0  0  0  0  0
    7.6391   -3.5854    0.0000 C   0  0  0  0  0  0  0  0  0  0  0  0
    6.9246   -3.9979    0.0000 C   0  0  0  0  0  0  0  0  0  0  0  0
    6.2102   -3.5854    0.0000 C   0  0  0  0  0  0  0  0  0  0  0  0
    5.4957   -3.9979    0.0000 O   0  0  0  0  0  0  0  0  0  0  0  0
    4.7812   -2.7604    0.0000 C   0  0  0  0  0  0  0  0  0  0  0  0
    4.0668   -2.3479    0.0000 C   0  0  0  0  0  0  0  0  0  0  0  0
    2.6378   -1.5229    0.0000 C   0  0  0  0  0  0  0  0  0  0  0  0
    1.9233   -1.1104    0.0000 C   0  0  0  0  0  0  0  0  0  0  0  0
    1.1387   -1.3654    0.0000 N   0  0  0  0  0  0  0  0  0  0  0  0
  1  2  1  0  0  0  0
  2  3  4  0  0  0  0
  3  4  4  0  0  0  0
  4  5  4  0  0  0  0
  5  6  1  0  0  0  0
  6  7  2  0  0  0  0
  6  8  1  0  0  0  0
  5  9  4  0  0  0  0
  9 10  4  0  0  0  0
 10 11  1  0  0  0  0
 11 12  4  0  0  0  0
 12 13  4  0  0  0  0
 13 14  4  0  0  0  0
 14 15  1  0  0  0  0
 15 16  4  0  0  0  0
 16 17  4  0  0  0  0
 17 18  4  0  0  0  0
 18 19  4  0  0  0  0
 19 20  4  0  0  0  0
 15 20  4  0  0  0  0
 20 21  1  0  0  0  0
 14 22  4  0  0  0  0
 22 23  4  0  0  0  0
 11 23  4  0  0  0  0
 10 24  4  0  0  0  0
 24 25  4  0  0  0  0
  4 25  4  0  0  0  0
 25 26  4  0  0  0  0
  2 26  4  0  0  0  0
M  STY  1   1 DAT
M  SAL   1  1  26
M  SDT   1 MRV_IMPLICIT_H                                        
M  SDD   1     0.5304   -0.4125    DR    ALL  0       0  
M  SED   1 IMPL_H1
M  END
> <IC50(uM)>
0.055

> <Outcome>
1.0

> <BindingDB ID>
1045592

> <BindingDB MonomerID>
501650

> <BindingDB Ligand Name>
US11028054, Example 23

> <Curation/DataSource>
US Patent

> <Article DOI>
?

> <PMID>
?

> <Patent Number>
US11028054

> <Authors>
Thunuguntla, SS; Hosahalli, S; Panigrahi, SK; Schwarz, M; Arit, M

> <Link to Ligand in BindingDB>
http://www.bindingdb.org/bind/chemsearch/marvin/MolStructure.jsp?monomerid=501650

> <Link to Ligand-Target Pair in BindingDB>
http://www.bindingdb.org/jsp/dbsearch/PrimarySearch_ki.jsp?energyterm=kJ/mole&tag=r21&monomerid=501650&enzyme=Dihydroorotate+dehydrogenase&column=ki&startPg=0&Increment=50&submit=Search

> <PubChem CID>
?

> <PubChem SID>
?

$$$$

  Mrv2115 07222212352D          

 20 22  0  0  0  0            999 V2000
   -1.0079    3.7125    0.0000 C   0  0  0  0  0  0  0  0  0  0  0  0
   -0.2934    3.3000    0.0000 C   0  0  0  0  0  0  0  0  0  0  0  0
    0.4210    3.7125    0.0000 C   0  0  0  0  0  0  0  0  0  0  0  0
    1.1355    3.3000    0.0000 C   0  0  0  0  0  0  0  0  0  0  0  0
    1.8500    3.7125    0.0000 C   0  0  0  0  0  0  0  0  0  0  0  0
    2.5645    3.3000    0.0000 C   0  0  0  0  0  0  0  0  0  0  0  0
    2.5645    2.4750    0.0000 C   0  0  0  0  0  0  0  0  0  0  0  0
    3.2789    2.0625    0.0000 N   0  0  0  0  0  0  0  0  0  0  0  0
    3.2789    1.2375    0.0000 C   0  0  0  0  0  0  0  0  0  0  0  0
    3.9934    0.8250    0.0000 C   0  0  0  0  0  0  0  0  0  0  0  0
    3.9934    0.0000    0.0000 C   0  0  0  0  0  0  0  0  0  0  0  0
    4.7079   -0.4125    0.0000 C   0  0  0  0  0  0  0  0  0  0  0  0
    3.2789   -0.4125    0.0000 N   0  0  0  0  0  0  0  0  0  0  0  0
    2.5645    0.0000    0.0000 C   0  0  0  0  0  0  0  0  0  0  0  0
    1.7798   -0.2549    0.0000 N   0  0  0  0  0  0  0  0  0  0  0  0
    1.2949    0.4125    0.0000 C   0  0  0  0  0  0  0  0  0  0  0  0
    1.7798    1.0799    0.0000 N   0  0  0  0  0  0  0  0  0  0  0  0
    2.5645    0.8250    0.0000 N   0  0  0  0  0  0  0  0  0  0  0  0
    1.8500    2.0625    0.0000 C   0  0  0  0  0  0  0  0  0  0  0  0
    1.1355    2.4750    0.0000 C   0  0  0  0  0  0  0  0  0  0  0  0
  1  2  1  0  0  0  0
  2  3  1  0  0  0  0
  3  4  1  0  0  0  0
  4  5  4  0  0  0  0
  5  6  4  0  0  0  0
  6  7  4  0  0  0  0
  7  8  1  0  0  0  0
  8  9  1  0  0  0  0
  9 10  4  0  0  0  0
 10 11  4  0  0  0  0
 11 12  1  0  0  0  0
 11 13  4  0  0  0  0
 13 14  4  0  0  0  0
 14 15  4  0  0  0  0
 15 16  4  0  0  0  0
 16 17  4  0  0  0  0
 17 18  4  0  0  0  0
  9 18  4  0  0  0  0
 14 18  4  0  0  0  0
  7 19  4  0  0  0  0
 19 20  4  0  0  0  0
  4 20  4  0  0  0  0
M  END
> <IC50(uM)>
100.0

> <Outcome>
0.0

> <BindingDB ID>
50643145

> <BindingDB MonomerID>
50345401

> <BindingDB Ligand Name>
CHEMBL1784555::N-(4-Propylphenyl)-5-methyl-[1,2,4]triazolo[1,5-a]pyrimidin-7-amine

> <Curation/DataSource>
ChEMBL

> <Article DOI>
10.1021/jm200265b

> <PMID>
21517059

> <Patent Number>
?

> <Authors>
Gujjar, R; El Mazouni, F; White, KL; White, J; Creason, S; Shackleford, DM; Deng, X; Charman, WN; Bathurst, I; Burrows, J; Floyd, DM; Matthews, D; Buckner, FS; Charman, SA; Phillips, MA; Rathod, PK

> <Link to Ligand in BindingDB>
http://www.bindingdb.org/bind/chemsearch/marvin/MolStructure.jsp?monomerid=50345401

> <Link to Ligand-Target Pair in BindingDB>
http://www.bindingdb.org/jsp/dbsearch/PrimarySearch_ki.jsp?energyterm=kJ/mole&tag=r21&monomerid=50345401&enzyme=Dihydroorotate+dehydrogenase&column=ki&startPg=0&Increment=50&submit=Search

> <PubChem CID>
32617117

> <PubChem SID>
131348337

$$$$

  Mrv2115 07222212352D          

 21 22  0  0  0  0            999 V2000
    2.8579   -2.4750    0.0000 C   0  0  0  0  0  0  0  0  0  0  0  0
    2.1434   -2.8875    0.0000 C   0  0  0  0  0  0  0  0  0  0  0  0
    2.1434   -3.7125    0.0000 C   0  0  0  0  0  0  0  0  0  0  0  0
    2.8579   -4.1250    0.0000 C   0  0  0  0  0  0  0  0  0  0  0  0
    2.8579   -4.9500    0.0000 C   0  0  0  0  0  0  0  0  0  0  0  0
    2.1434   -5.3625    0.0000 C   0  0  0  0  0  0  0  0  0  0  0  0
    1.4289   -4.9500    0.0000 C   0  0  0  0  0  0  0  0  0  0  0  0
    0.7145   -5.3625    0.0000 N   0  0  0  0  0  0  0  0  0  0  0  0
    0.7145   -6.1875    0.0000 C   0  0  0  0  0  0  0  0  0  0  0  0
    1.4289   -6.6000    0.0000 O   0  0  0  0  0  0  0  0  0  0  0  0
    0.0000   -6.6000    0.0000 C   0  0  0  0  0  0  0  0  0  0  0  0
    0.0000   -7.4250    0.0000 C   0  0  0  0  0  0  0  0  0  0  0  0
   -0.7145   -7.8375    0.0000 C   0  0  0  0  0  0  0  0  0  0  0  0
   -0.7145   -8.6625    0.0000 C   0  0  0  0  0  0  0  0  0  0  0  0
   -1.4289   -9.0750    0.0000 C   0  0  0  0  0  0  0  0  0  0  0  0
   -2.1434   -8.6625    0.0000 C   0  0  0  0  0  0  0  0  0  0  0  0
   -2.8579   -9.0750    0.0000 Cl  0  0  0  0  0  0  0  0  0  0  0  0
   -2.1434   -7.8375    0.0000 C   0  0  0  0  0  0  0  0  0  0  0  0
   -2.8579   -7.4250    0.0000 Cl  0  0  0  0  0  0  0  0  0  0  0  0
   -1.4289   -7.4250    0.0000 C   0  0  0  0  0  0  0  0  0  0  0  0
    1.4289   -4.1250    0.0000 C   0  0  0  0  0  0  0  0  0  0  0  0
  1  2  1  0  0  0  0
  2  3  1  0  0  0  0
  3  4  4  0  0  0  0
  4  5  4  0  0  0  0
  5  6  4  0  0  0  0
  6  7  4  0  0  0  0
  7  8  1  0  0  0  0
  8  9  1  0  0  0  0
  9 10  2  0  0  0  0
  9 11  1  0  0  0  0
 11 12  2  0  0  0  0
 12 13  1  0  0  0  0
 13 14  4  0  0  0  0
 14 15  4  0  0  0  0
 15 16  4  0  0  0  0
 16 17  1  0  0  0  0
 16 18  4  0  0  0  0
 18 19  1  0  0  0  0
 18 20  4  0  0  0  0
 13 20  4  0  0  0  0
  7 21  4  0  0  0  0
  3 21  4  0  0  0  0
M  END
> <IC50(uM)>
0.55

> <Outcome>
1.0

> <BindingDB ID>
50971945

> <BindingDB MonomerID>
50398647

> <BindingDB Ligand Name>
CHEMBL2178106

> <Curation/DataSource>
ChEMBL

> <Article DOI>
10.1021/jm300630p

> <PMID>
22984987

> <Patent Number>
?

> <Authors>
Diao, Y; Lu, W; Jin, H; Zhu, J; Han, L; Xu, M; Gao, R; Shen, X; Zhao, Z; Liu, X; Xu, Y; Huang, J; Li, H

> <Link to Ligand in BindingDB>
http://www.bindingdb.org/bind/chemsearch/marvin/MolStructure.jsp?monomerid=50398647

> <Link to Ligand-Target Pair in BindingDB>
http://www.bindingdb.org/jsp/dbsearch/PrimarySearch_ki.jsp?energyterm=kJ/mole&tag=r21&monomerid=50398647&enzyme=Dihydroorotate+dehydrogenase&column=ki&startPg=0&Increment=50&submit=Search

> <PubChem CID>
844231

> <PubChem SID>
163347671

$$$$

  Mrv2115 07222212352D          

 19 21  0  0  0  0            999 V2000
    4.0668    2.3479    0.0000 C   0  0  0  0  0  0  0  0  0  0  0  0
    3.3523    1.9354    0.0000 C   0  0  0  0  0  0  0  0  0  0  0  0
    3.3523    1.1104    0.0000 C   0  0  0  0  0  0  0  0  0  0  0  0
    2.6378    0.6979    0.0000 C   0  0  0  0  0  0  0  0  0  0  0  0
    2.6378   -0.1271    0.0000 N   0  0  0  0  0  0  0  0  0  0  0  0
    1.9233    1.1104    0.0000 N   0  0  0  0  0  0  0  0  0  0  0  0
    1.1387    0.8555    0.0000 N   0  0  0  0  0  0  0  0  0  0  0  0
    0.6538    1.5229    0.0000 C   0  0  0  0  0  0  0  0  0  0  0  0
   -0.1712    1.5229    0.0000 S   0  0  0  0  0  0  0  0  0  0  0  0
   -0.5837    0.8085    0.0000 C   0  0  0  0  0  0  0  0  0  0  0  0
   -1.4087    0.8085    0.0000 C   0  0  0  0  0  0  0  0  0  0  0  0
   -1.8212    0.0940    0.0000 C   0  0  0  0  0  0  0  0  0  0  0  0
   -2.6462    0.0940    0.0000 C   0  0  0  0  0  0  0  0  0  0  0  0
   -3.0587    0.8085    0.0000 C   0  0  0  0  0  0  0  0  0  0  0  0
   -2.6462    1.5229    0.0000 C   0  0  0  0  0  0  0  0  0  0  0  0
   -1.8212    1.5229    0.0000 C   0  0  0  0  0  0  0  0  0  0  0  0
    1.1387    2.1904    0.0000 N   0  0  0  0  0  0  0  0  0  0  0  0
    1.9233    1.9354    0.0000 C   0  0  0  0  0  0  0  0  0  0  0  0
    2.6378    2.3479    0.0000 N   0  0  0  0  0  0  0  0  0  0  0  0
  1  2  1  0  0  0  0
  2  3  4  0  0  0  0
  3  4  4  0  0  0  0
  4  5  1  0  0  0  0
  4  6  4  0  0  0  0
  6  7  4  0  0  0  0
  7  8  4  0  0  0  0
  8  9  1  0  0  0  0
  9 10  1  0  0  0  0
 10 11  1  0  0  0  0
 11 12  4  0  0  0  0
 12 13  4  0  0  0  0
 13 14  4  0  0  0  0
 14 15  4  0  0  0  0
 15 16  4  0  0  0  0
 11 16  4  0  0  0  0
  8 17  4  0  0  0  0
 17 18  4  0  0  0  0
  6 18  4  0  0  0  0
 18 19  4  0  0  0  0
  2 19  4  0  0  0  0
M  END
> <IC50(uM)>
100.0

> <Outcome>
0.0

> <BindingDB ID>
50970242

> <BindingDB MonomerID>
50397815

> <BindingDB Ligand Name>
CHEMBL2177862

> <Curation/DataSource>
ChEMBL

> <Article DOI>
10.1021/jm300157n

> <PMID>
22621375

> <Patent Number>
?

> <Authors>
Bedingfield, PT; Cowen, D; Acklam, P; Cunningham, F; Parsons, MR; McConkey, GA; Fishwick, CW; Johnson, AP

> <Link to Ligand in BindingDB>
http://www.bindingdb.org/bind/chemsearch/marvin/MolStructure.jsp?monomerid=50397815

> <Link to Ligand-Target Pair in BindingDB>
http://www.bindingdb.org/jsp/dbsearch/PrimarySearch_ki.jsp?energyterm=kJ/mole&tag=r21&monomerid=50397815&enzyme=Dihydroorotate+dehydrogenase&column=ki&startPg=0&Increment=50&submit=Search

> <PubChem CID>
60166618

> <PubChem SID>
163346839

$$$$

  Mrv2115 07222212352D          

 23 24  0  0  0  0            999 V2000
    3.4656    1.1759    0.0000 C   0  0  0  0  0  0  0  0  0  0  0  0
    2.7512    0.7634    0.0000 C   0  0  0  0  0  0  0  0  0  0  0  0
    2.7512   -0.0616    0.0000 N   0  0  0  0  0  0  0  0  0  0  0  0
    2.0367   -0.4741    0.0000 C   0  0  0  0  0  0  0  0  0  0  0  0
    1.3222   -0.0616    0.0000 O   0  0  0  0  0  0  0  0  0  0  0  0
    2.0367   -1.2991    0.0000 C   0  0  0  0  0  0  0  0  0  0  0  0
    2.7041   -1.7840    0.0000 N   0  0  0  0  0  0  0  0  0  0  0  0
    2.4492   -2.5687    0.0000 C   0  0  0  0  0  0  0  0  0  0  0  0
    2.9341   -3.2361    0.0000 C   0  0  0  0  0  0  0  0  0  0  0  0
    1.6242   -2.5687    0.0000 C   0  0  0  0  0  0  0  0  0  0  0  0
    1.1393   -3.2361    0.0000 C   0  0  0  0  0  0  0  0  0  0  0  0
    0.3188   -3.1499    0.0000 C   0  0  0  0  0  0  0  0  0  0  0  0
   -0.1661   -3.8173    0.0000 C   0  0  0  0  0  0  0  0  0  0  0  0
   -0.9866   -3.7311    0.0000 C   0  0  0  0  0  0  0  0  0  0  0  0
   -1.3222   -2.9774    0.0000 C   0  0  0  0  0  0  0  0  0  0  0  0
   -2.1426   -2.8911    0.0000 C   0  0  0  0  0  0  0  0  0  0  0  0
   -2.9631   -2.8049    0.0000 F   0  0  0  0  0  0  0  0  0  0  0  0
   -2.0564   -2.0707    0.0000 F   0  0  0  0  0  0  0  0  0  0  0  0
   -2.2289   -3.7116    0.0000 F   0  0  0  0  0  0  0  0  0  0  0  0
   -0.8372   -2.3099    0.0000 N   0  0  0  0  0  0  0  0  0  0  0  0
   -0.0168   -2.3962    0.0000 C   0  0  0  0  0  0  0  0  0  0  0  0
    1.3693   -1.7840    0.0000 C   0  0  0  0  0  0  0  0  0  0  0  0
    0.5846   -1.5291    0.0000 C   0  0  0  0  0  0  0  0  0  0  0  0
  1  2  1  0  0  0  0
  2  3  1  0  0  0  0
  3  4  1  0  0  0  0
  4  5  2  0  0  0  0
  4  6  1  0  0  0  0
  6  7  4  0  0  0  0
  7  8  4  0  0  0  0
  8  9  1  0  0  0  0
  8 10  4  0  0  0  0
 10 11  1  0  0  0  0
 11 12  1  0  0  0  0
 12 13  4  0  0  0  0
 13 14  4  0  0  0  0
 14 15  4  0  0  0  0
 15 16  1  0  0  0  0
 16 17  1  0  0  0  0
 16 18  1  0  0  0  0
 16 19  1  0  0  0  0
 15 20  4  0  0  0  0
 20 21  4  0  0  0  0
 12 21  4  0  0  0  0
 10 22  4  0  0  0  0
  6 22  4  0  0  0  0
 22 23  1  0  0  0  0
M  STY  1   1 DAT
M  SAL   1  1   7
M  SDT   1 MRV_IMPLICIT_H                                        
M  SDD   1     0.5304   -0.4125    DR    ALL  0       0  
M  SED   1 IMPL_H1
M  END
> <IC50(uM)>
100.0

> <Outcome>
0.0

> <BindingDB ID>
51330088

> <BindingDB MonomerID>
50538336

> <BindingDB Ligand Name>
CHEMBL4639489

> <Curation/DataSource>
ChEMBL

> <Article DOI>
10.1021/acs.jmedchem.0c00311

> <PMID>
32248693

> <Patent Number>
?

> <Authors>
Kokkonda, S; Deng, X; White, KL; El Mazouni, F; White, J; Shackleford, DM; Katneni, K; Chiu, FCK; Barker, H; McLaren, J; Crighton, E; Chen, G; Angulo-Barturen, I; Jimenez-Diaz, MB; Ferrer, S; Huertas-Valentin, L; Martinez-Martinez, MS; Lafuente-Monasterio, MJ; Chittimalla, R; Shahi, SP; Wittlin, S; Waterson, D; Burrows, JN; Matthews, D; Tomchick, D; Rathod, PK; Palmer, MJ; Charman, SA; Phillips, MA

> <Link to Ligand in BindingDB>
http://www.bindingdb.org/bind/chemsearch/marvin/MolStructure.jsp?monomerid=50538336

> <Link to Ligand-Target Pair in BindingDB>
http://www.bindingdb.org/jsp/dbsearch/PrimarySearch_ki.jsp?energyterm=kJ/mole&tag=r21&monomerid=50538336&enzyme=Dihydroorotate+dehydrogenase&column=ki&startPg=0&Increment=50&submit=Search

> <PubChem CID>
156013092

> <PubChem SID>
442139899

$$$$

  Mrv2115 07222212352D          

 36 40  0  0  0  0            999 V2000
   -1.8659    1.4455    0.0000 C   0  0  0  0  0  0  0  0  0  0  0  0
   -2.6909    1.4455    0.0000 C   0  0  0  0  0  0  0  0  0  0  0  0
   -3.1034    0.7310    0.0000 O   0  0  0  0  0  0  0  0  0  0  0  0
   -2.6909    0.0165    0.0000 C   0  0  0  0  0  0  0  0  0  0  0  0
   -1.8659    0.0165    0.0000 C   0  0  0  0  0  0  0  0  0  0  0  0
   -1.4534   -0.6979    0.0000 C   0  0  0  0  0  0  0  0  0  0  0  0
   -0.6284   -0.6979    0.0000 N   0  0  0  0  0  0  0  0  0  0  0  0
   -0.1435   -1.3654    0.0000 N   0  0  0  0  0  0  0  0  0  0  0  0
    0.6411   -1.1104    0.0000 C   0  0  0  0  0  0  0  0  0  0  0  0
    0.6411   -0.2854    0.0000 N   0  0  0  0  0  0  0  0  0  0  0  0
   -0.1435   -0.0305    0.0000 C   0  0  0  0  0  0  0  0  0  0  0  0
   -0.3984    0.7541    0.0000 O   0  0  0  0  0  0  0  0  0  0  0  0
    1.3556    0.1271    0.0000 C   0  0  0  0  0  0  0  0  0  0  0  0
    2.0701   -0.2854    0.0000 C   0  0  0  0  0  0  0  0  0  0  0  0
    2.0701   -1.1104    0.0000 C   0  0  0  0  0  0  0  0  0  0  0  0
    1.3556   -1.5229    0.0000 C   0  0  0  0  0  0  0  0  0  0  0  0
   -1.8659   -1.4124    0.0000 C   0  0  0  0  0  0  0  0  0  0  0  0
   -1.4534   -2.1269    0.0000 F   0  0  0  0  0  0  0  0  0  0  0  0
   -2.6909   -1.4124    0.0000 C   0  0  0  0  0  0  0  0  0  0  0  0
   -3.1034   -0.6979    0.0000 C   0  0  0  0  0  0  0  0  0  0  0  0
   -3.9284   -0.6979    0.0000 C   0  0  0  0  0  0  0  0  0  0  0  0
   -4.3409    0.0165    0.0000 O   0  0  0  0  0  0  0  0  0  0  0  0
   -4.3409   -1.4124    0.0000 N   0  0  0  0  0  0  0  0  0  0  0  0
   -3.9284   -2.1269    0.0000 C   0  0  0  0  0  0  0  0  0  0  0  0
   -3.1034   -2.1269    0.0000 C   0  0  0  0  0  0  0  0  0  0  0  0
   -2.6909   -2.8414    0.0000 C   0  0  0  0  0  0  0  0  0  0  0  0
   -3.1034   -3.5558    0.0000 C   0  0  0  0  0  0  0  0  0  0  0  0
   -3.9284   -3.5558    0.0000 C   0  0  0  0  0  0  0  0  0  0  0  0
   -4.3409   -2.8414    0.0000 C   0  0  0  0  0  0  0  0  0  0  0  0
   -5.1659   -2.8414    0.0000 F   0  0  0  0  0  0  0  0  0  0  0  0
   -3.1034    2.1599    0.0000 C   0  0  0  0  0  0  0  0  0  0  0  0
   -3.9284    2.1599    0.0000 C   0  0  0  0  0  0  0  0  0  0  0  0
   -4.3409    2.8744    0.0000 C   0  0  0  0  0  0  0  0  0  0  0  0
   -3.9284    3.5889    0.0000 C   0  0  0  0  0  0  0  0  0  0  0  0
   -3.1034    3.5889    0.0000 C   0  0  0  0  0  0  0  0  0  0  0  0
   -2.6909    2.8744    0.0000 C   0  0  0  0  0  0  0  0  0  0  0  0
  1  2  1  0  0  0  0
  2  3  1  0  0  0  0
  3  4  1  0  0  0  0
  4  5  4  0  0  0  0
  5  6  4  0  0  0  0
  6  7  1  0  0  0  0
  7  8  4  0  0  0  0
  8  9  4  0  0  0  0
  9 10  4  0  0  0  0
 10 11  4  0  0  0  0
  7 11  4  0  0  0  0
 11 12  2  0  0  0  0
 10 13  1  0  0  0  0
 13 14  1  0  0  0  0
 14 15  1  0  0  0  0
 15 16  1  0  0  0  0
  9 16  1  0  0  0  0
  6 17  4  0  0  0  0
 17 18  1  0  0  0  0
 17 19  4  0  0  0  0
 19 20  4  0  0  0  0
  4 20  4  0  0  0  0
 20 21  1  0  0  0  0
 21 22  2  0  0  0  0
 21 23  1  0  0  0  0
 23 24  1  0  0  0  0
 24 25  4  0  0  0  0
 25 26  4  0  0  0  0
 26 27  4  0  0  0  0
 27 28  4  0  0  0  0
 28 29  4  0  0  0  0
 24 29  4  0  0  0  0
 29 30  1  0  0  0  0
  2 31  1  0  0  0  0
 31 32  4  0  0  0  0
 32 33  4  0  0  0  0
 33 34  4  0  0  0  0
 34 35  4  0  0  0  0
 35 36  4  0  0  0  0
 31 36  4  0  0  0  0
M  END
> <IC50(uM)>
0.401

> <Outcome>
1.0

> <BindingDB ID>
1020665; 1020664

> <BindingDB MonomerID>
490593

> <BindingDB Ligand Name>
5-fluoro-N-(2-fluorophenyl)-4-(3-oxo-5,6,7,8-tetrahydro[1,2,4]triazolo[4,3-a]pyridin-2(3H)-yl)-2-[(1S)-1-phenylethoxy]benzamide::US10968216, Example 261

> <Curation/DataSource>
US Patent

> <Article DOI>
?

> <PMID>
?

> <Patent Number>
US10968216

> <Authors>
Gradl, SN; Nguyen, D; Eis, K; Gunther, J; Stellfeld, T; Janzer, A; Christian, S; Mueller, T; Sheikh, SE; Zhou, HJ; Zhao, C; Sykes, DB; Ferrara, SJ; Liu, K; Herbert, SA; Merz, C; Niehues, M; Nising, CF; Schafer, M; Zimmermann, K; Knablein, J; Thede, K; Faupel, T

> <Link to Ligand in BindingDB>
http://www.bindingdb.org/bind/chemsearch/marvin/MolStructure.jsp?monomerid=490593

> <Link to Ligand-Target Pair in BindingDB>
http://www.bindingdb.org/jsp/dbsearch/PrimarySearch_ki.jsp?energyterm=kJ/mole&tag=r21&monomerid=490593&enzyme=Dihydroorotate+dehydrogenase&column=ki&startPg=0&Increment=50&submit=Search

> <PubChem CID>
142335861

> <PubChem SID>
447117319

$$$$

  Mrv2115 07222212352D          

 19 21  0  0  0  0            999 V2000
    4.0668    2.3479    0.0000 C   0  0  0  0  0  0  0  0  0  0  0  0
    3.3523    1.9354    0.0000 C   0  0  0  0  0  0  0  0  0  0  0  0
    3.3523    1.1104    0.0000 C   0  0  0  0  0  0  0  0  0  0  0  0
    2.6378    0.6979    0.0000 C   0  0  0  0  0  0  0  0  0  0  0  0
    2.6378   -0.1271    0.0000 N   0  0  0  0  0  0  0  0  0  0  0  0
    1.9233   -0.5396    0.0000 C   0  0  0  0  0  0  0  0  0  0  0  0
    1.9233   -1.3646    0.0000 C   0  0  0  0  0  0  0  0  0  0  0  0
    1.2089   -1.7771    0.0000 C   0  0  0  0  0  0  0  0  0  0  0  0
    0.4944   -1.3646    0.0000 C   0  0  0  0  0  0  0  0  0  0  0  0
   -0.2201   -1.7771    0.0000 Cl  0  0  0  0  0  0  0  0  0  0  0  0
    0.4944   -0.5396    0.0000 C   0  0  0  0  0  0  0  0  0  0  0  0
   -0.2201   -0.1271    0.0000 F   0  0  0  0  0  0  0  0  0  0  0  0
    1.2089   -0.1271    0.0000 C   0  0  0  0  0  0  0  0  0  0  0  0
    1.9233    1.1104    0.0000 N   0  0  0  0  0  0  0  0  0  0  0  0
    1.1387    0.8555    0.0000 N   0  0  0  0  0  0  0  0  0  0  0  0
    0.6538    1.5229    0.0000 C   0  0  0  0  0  0  0  0  0  0  0  0
    1.1387    2.1904    0.0000 N   0  0  0  0  0  0  0  0  0  0  0  0
    1.9233    1.9354    0.0000 C   0  0  0  0  0  0  0  0  0  0  0  0
    2.6378    2.3479    0.0000 N   0  0  0  0  0  0  0  0  0  0  0  0
  1  2  1  0  0  0  0
  2  3  4  0  0  0  0
  3  4  4  0  0  0  0
  4  5  1  0  0  0  0
  5  6  1  0  0  0  0
  6  7  4  0  0  0  0
  7  8  4  0  0  0  0
  8  9  4  0  0  0  0
  9 10  1  0  0  0  0
  9 11  4  0  0  0  0
 11 12  1  0  0  0  0
 11 13  4  0  0  0  0
  6 13  4  0  0  0  0
  4 14  4  0  0  0  0
 14 15  4  0  0  0  0
 15 16  4  0  0  0  0
 16 17  4  0  0  0  0
 17 18  4  0  0  0  0
 14 18  4  0  0  0  0
 18 19  4  0  0  0  0
  2 19  4  0  0  0  0
M  END
> <IC50(uM)>
50.0

> <Outcome>
0.0

> <BindingDB ID>
50643153

> <BindingDB MonomerID>
50345405

> <BindingDB Ligand Name>
CHEMBL1784575::N-(4-Chloro-3-fluorophenyl)-5-methyl-[1,2,4]triazolo[1,5-a]pyrimidin-7-amine::US9238653, Table 5, Compound 23

> <Curation/DataSource>
ChEMBL

> <Article DOI>
10.1021/jm200265b

> <PMID>
21517059

> <Patent Number>
?

> <Authors>
Gujjar, R; El Mazouni, F; White, KL; White, J; Creason, S; Shackleford, DM; Deng, X; Charman, WN; Bathurst, I; Burrows, J; Floyd, DM; Matthews, D; Buckner, FS; Charman, SA; Phillips, MA; Rathod, PK

> <Link to Ligand in BindingDB>
http://www.bindingdb.org/bind/chemsearch/marvin/MolStructure.jsp?monomerid=50345405

> <Link to Ligand-Target Pair in BindingDB>
http://www.bindingdb.org/jsp/dbsearch/PrimarySearch_ki.jsp?energyterm=kJ/mole&tag=r21&monomerid=50345405&enzyme=Dihydroorotate+dehydrogenase&column=ki&startPg=0&Increment=50&submit=Search

> <PubChem CID>
51347852

> <PubChem SID>
131348341

$$$$

  Mrv2115 07222212352D          

 21 23  0  0  0  0            999 V2000
    3.2789    2.0625    0.0000 O   0  0  0  0  0  0  0  0  0  0  0  0
    3.2789    1.2375    0.0000 C   0  0  0  0  0  0  0  0  0  0  0  0
    3.9934    0.8250    0.0000 C   0  0  0  0  0  0  0  0  0  0  0  0
    3.9934    0.0000    0.0000 C   0  0  0  0  0  0  0  0  0  0  0  0
    3.2789   -0.4125    0.0000 C   0  0  0  0  0  0  0  0  0  0  0  0
    2.5645    0.0000    0.0000 C   0  0  0  0  0  0  0  0  0  0  0  0
    1.7798   -0.2549    0.0000 N   0  0  0  0  0  0  0  0  0  0  0  0
    1.2949    0.4125    0.0000 N   0  0  0  0  0  0  0  0  0  0  0  0
    1.7798    1.0799    0.0000 C   0  0  0  0  0  0  0  0  0  0  0  0
    1.5249    1.8646    0.0000 N   0  0  0  0  0  0  0  0  0  0  0  0
    2.0769    2.4777    0.0000 C   0  0  0  0  0  0  0  0  0  0  0  0
    1.8220    3.2623    0.0000 C   0  0  0  0  0  0  0  0  0  0  0  0
    2.3740    3.8754    0.0000 C   0  0  0  0  0  0  0  0  0  0  0  0
    3.1810    3.7038    0.0000 C   0  0  0  0  0  0  0  0  0  0  0  0
    3.7330    4.3169    0.0000 C   0  0  0  0  0  0  0  0  0  0  0  0
    4.2851    4.9300    0.0000 F   0  0  0  0  0  0  0  0  0  0  0  0
    4.3461    3.7649    0.0000 F   0  0  0  0  0  0  0  0  0  0  0  0
    3.1199    4.8690    0.0000 F   0  0  0  0  0  0  0  0  0  0  0  0
    3.4359    2.9192    0.0000 C   0  0  0  0  0  0  0  0  0  0  0  0
    2.8839    2.3061    0.0000 C   0  0  0  0  0  0  0  0  0  0  0  0
    2.5645    0.8250    0.0000 C   0  0  0  0  0  0  0  0  0  0  0  0
  1  2  2  0  0  0  0
  2  3  1  0  0  0  0
  3  4  1  0  0  0  0
  4  5  1  0  0  0  0
  5  6  1  0  0  0  0
  6  7  4  0  0  0  0
  7  8  4  0  0  0  0
  8  9  4  0  0  0  0
  9 10  1  0  0  0  0
 10 11  1  0  0  0  0
 11 12  4  0  0  0  0
 12 13  4  0  0  0  0
 13 14  4  0  0  0  0
 14 15  1  0  0  0  0
 15 16  1  0  0  0  0
 15 17  1  0  0  0  0
 15 18  1  0  0  0  0
 14 19  4  0  0  0  0
 19 20  4  0  0  0  0
 11 20  4  0  0  0  0
  9 21  4  0  0  0  0
  6 21  4  0  0  0  0
  2 21  1  0  0  0  0
M  STY  1   1 DAT
M  SAL   1  1   8
M  SDT   1 MRV_IMPLICIT_H                                        
M  SDD   1     0.5304   -0.4125    DR    ALL  0       0  
M  SED   1 IMPL_H1
M  END
> <IC50(uM)>
6.5

> <Outcome>
0.0

> <BindingDB ID>
50786765

> <BindingDB MonomerID>
50066580

> <BindingDB Ligand Name>
3-(4-Trifluoromethyl-phenylamino)-1,5,6,7-tetrahydro-indazol-4-one::CHEMBL418870

> <Curation/DataSource>
ChEMBL

> <Article DOI>
10.1021/jm981028c

> <PMID>
9719606

> <Patent Number>
?

> <Authors>
Papageorgiou, C; Albert, R; Floersheim, P; Lemaire, M; Bitch, F; Weber, HP; Andersen, E; Hungerford, V; Schreier, MH

> <Link to Ligand in BindingDB>
http://www.bindingdb.org/bind/chemsearch/marvin/MolStructure.jsp?monomerid=50066580

> <Link to Ligand-Target Pair in BindingDB>
http://www.bindingdb.org/jsp/dbsearch/PrimarySearch_ki.jsp?energyterm=kJ/mole&tag=r21&monomerid=50066580&enzyme=Dihydroorotate+dehydrogenase&column=ki&startPg=0&Increment=50&submit=Search

> <PubChem CID>
10541884

> <PubChem SID>
103961200

$$$$

  Mrv2115 07222212352D          

 37 40  0  0  0  0            999 V2000
   -4.4458    1.4423    0.0000 C   0  0  0  0  0  0  0  0  0  0  0  0
   -5.2708    1.4423    0.0000 O   0  0  0  0  0  0  0  0  0  0  0  0
   -5.6833    0.7279    0.0000 C   0  0  0  0  0  0  0  0  0  0  0  0
   -6.5083    0.7279    0.0000 N   0  0  0  0  0  0  0  0  0  0  0  0
   -6.9208    0.0134    0.0000 C   0  0  0  0  0  0  0  0  0  0  0  0
   -6.5083   -0.7011    0.0000 C   0  0  0  0  0  0  0  0  0  0  0  0
   -5.6833   -0.7011    0.0000 C   0  0  0  0  0  0  0  0  0  0  0  0
   -5.2708   -1.4156    0.0000 C   0  0  0  0  0  0  0  0  0  0  0  0
   -5.2708    0.0134    0.0000 C   0  0  0  0  0  0  0  0  0  0  0  0
   -4.4458    0.0134    0.0000 N   0  0  0  0  0  0  0  0  0  0  0  0
   -4.0333   -0.7011    0.0000 C   0  0  0  0  0  0  0  0  0  0  0  0
   -4.4458   -1.4156    0.0000 O   0  0  0  0  0  0  0  0  0  0  0  0
   -3.2083   -0.7011    0.0000 C   0  0  0  0  0  0  0  0  0  0  0  0
   -2.7958    0.0134    0.0000 C   0  0  0  0  0  0  0  0  0  0  0  0
   -1.9708    0.0134    0.0000 C   0  0  0  0  0  0  0  0  0  0  0  0
   -1.5583    0.7279    0.0000 F   0  0  0  0  0  0  0  0  0  0  0  0
   -1.5583   -0.7011    0.0000 C   0  0  0  0  0  0  0  0  0  0  0  0
   -0.7333   -0.7011    0.0000 N   0  0  0  0  0  0  0  0  0  0  0  0
   -0.2483   -1.3685    0.0000 N   0  0  0  0  0  0  0  0  0  0  0  0
    0.5363   -1.1136    0.0000 C   0  0  0  0  0  0  0  0  0  0  0  0
    0.5363   -0.2886    0.0000 N   0  0  0  0  0  0  0  0  0  0  0  0
   -0.2483   -0.0336    0.0000 C   0  0  0  0  0  0  0  0  0  0  0  0
   -0.5033    0.7510    0.0000 O   0  0  0  0  0  0  0  0  0  0  0  0
    1.1813    0.2258    0.0000 C   0  0  0  0  0  0  0  0  0  0  0  0
    1.9856    0.0422    0.0000 C   0  0  0  0  0  0  0  0  0  0  0  0
    2.3436   -0.7011    0.0000 C   0  0  0  0  0  0  0  0  0  0  0  0
    1.9856   -1.4444    0.0000 O   0  0  0  0  0  0  0  0  0  0  0  0
    1.1813   -1.6280    0.0000 C   0  0  0  0  0  0  0  0  0  0  0  0
   -1.9708   -1.4156    0.0000 C   0  0  0  0  0  0  0  0  0  0  0  0
   -2.7958   -1.4156    0.0000 C   0  0  0  0  0  0  0  0  0  0  0  0
   -3.2083   -2.1300    0.0000 O   0  0  0  0  0  0  0  0  0  0  0  0
   -2.7958   -2.8445    0.0000 C   0  0  0  0  0  0  0  0  0  0  0  0
   -1.9708   -2.8445    0.0000 C   0  0  0  0  0  0  0  0  0  0  0  0
   -3.2083   -3.5590    0.0000 C   0  0  0  0  0  0  0  0  0  0  0  0
   -3.9227   -3.1465    0.0000 F   0  0  0  0  0  0  0  0  0  0  0  0
   -2.4938   -3.9715    0.0000 F   0  0  0  0  0  0  0  0  0  0  0  0
   -3.6208   -4.2734    0.0000 F   0  0  0  0  0  0  0  0  0  0  0  0
  1  2  1  0  0  0  0
  2  3  1  0  0  0  0
  3  4  4  0  0  0  0
  4  5  4  0  0  0  0
  5  6  4  0  0  0  0
  6  7  4  0  0  0  0
  7  8  1  0  0  0  0
  7  9  4  0  0  0  0
  3  9  4  0  0  0  0
  9 10  1  0  0  0  0
 10 11  1  0  0  0  0
 11 12  2  0  0  0  0
 11 13  1  0  0  0  0
 13 14  4  0  0  0  0
 14 15  4  0  0  0  0
 15 16  1  0  0  0  0
 15 17  4  0  0  0  0
 17 18  1  0  0  0  0
 18 19  4  0  0  0  0
 19 20  4  0  0  0  0
 20 21  4  0  0  0  0
 21 22  4  0  0  0  0
 18 22  4  0  0  0  0
 22 23  2  0  0  0  0
 21 24  1  0  0  0  0
 24 25  1  0  0  0  0
 25 26  1  0  0  0  0
 26 27  1  0  0  0  0
 27 28  1  0  0  0  0
 20 28  1  0  0  0  0
 17 29  4  0  0  0  0
 29 30  4  0  0  0  0
 13 30  4  0  0  0  0
 30 31  1  0  0  0  0
 31 32  1  0  0  0  0
 32 33  1  0  0  0  0
 32 34  1  0  0  0  0
 34 35  1  0  0  0  0
 34 36  1  0  0  0  0
 34 37  1  0  0  0  0
M  END
> <IC50(uM)>
0.03

> <Outcome>
1.0

> <BindingDB ID>
1020633

> <BindingDB MonomerID>
490562

> <BindingDB Ligand Name>
5-fluoro-N-(2-methoxy-4-methylpyridin-3-yl)-4-(3-oxo-6,7-dihydro-3H,5H-[1,2,4]triazolo[3,4-c]-[1,4]oxazepin-2(9H)-yl)-2-{[(2S)-1,1,1-trifluoropropan-2-yl]oxy}benzamide::US10968216, Example 230

> <Curation/DataSource>
US Patent

> <Article DOI>
?

> <PMID>
?

> <Patent Number>
US10968216

> <Authors>
Gradl, SN; Nguyen, D; Eis, K; Gunther, J; Stellfeld, T; Janzer, A; Christian, S; Mueller, T; Sheikh, SE; Zhou, HJ; Zhao, C; Sykes, DB; Ferrara, SJ; Liu, K; Herbert, SA; Merz, C; Niehues, M; Nising, CF; Schafer, M; Zimmermann, K; Knablein, J; Thede, K; Faupel, T

> <Link to Ligand in BindingDB>
http://www.bindingdb.org/bind/chemsearch/marvin/MolStructure.jsp?monomerid=490562

> <Link to Ligand-Target Pair in BindingDB>
http://www.bindingdb.org/jsp/dbsearch/PrimarySearch_ki.jsp?energyterm=kJ/mole&tag=r21&monomerid=490562&enzyme=Dihydroorotate+dehydrogenase&column=ki&startPg=0&Increment=50&submit=Search

> <PubChem CID>
134474348

> <PubChem SID>
447117288

$$$$

  Mrv2115 07222212352D          

 23 24  0  0  0  0            999 V2000
    0.6078    1.1759    0.0000 C   0  0  0  0  0  0  0  0  0  0  0  0
    1.3222    0.7634    0.0000 C   0  0  0  0  0  0  0  0  0  0  0  0
    1.3222   -0.0616    0.0000 O   0  0  0  0  0  0  0  0  0  0  0  0
    2.0367   -0.4741    0.0000 C   0  0  0  0  0  0  0  0  0  0  0  0
    2.7512   -0.0616    0.0000 O   0  0  0  0  0  0  0  0  0  0  0  0
    2.0367   -1.2991    0.0000 C   0  0  0  0  0  0  0  0  0  0  0  0
    2.7041   -1.7840    0.0000 S   0  0  0  0  0  0  0  0  0  0  0  0
    2.4492   -2.5687    0.0000 C   0  0  0  0  0  0  0  0  0  0  0  0
    2.9341   -3.2361    0.0000 N   0  0  0  0  0  0  0  0  0  0  0  0
    2.5986   -3.9898    0.0000 C   0  0  0  0  0  0  0  0  0  0  0  0
    3.0835   -4.6572    0.0000 C   0  0  0  0  0  0  0  0  0  0  0  0
    2.7479   -5.4109    0.0000 C   0  0  0  0  0  0  0  0  0  0  0  0
    1.9275   -5.4971    0.0000 C   0  0  0  0  0  0  0  0  0  0  0  0
    1.5919   -6.2508    0.0000 C   0  0  0  0  0  0  0  0  0  0  0  0
    1.4425   -4.8297    0.0000 C   0  0  0  0  0  0  0  0  0  0  0  0
    0.6221   -4.9159    0.0000 C   0  0  0  0  0  0  0  0  0  0  0  0
    1.7781   -4.0760    0.0000 C   0  0  0  0  0  0  0  0  0  0  0  0
    1.6242   -2.5687    0.0000 N   0  0  0  0  0  0  0  0  0  0  0  0
    1.3693   -1.7840    0.0000 C   0  0  0  0  0  0  0  0  0  0  0  0
    0.5846   -1.5291    0.0000 C   0  0  0  0  0  0  0  0  0  0  0  0
   -0.2000   -1.2742    0.0000 C   0  0  0  0  0  0  0  0  0  0  0  0
    0.8396   -0.7445    0.0000 C   0  0  0  0  0  0  0  0  0  0  0  0
    0.3297   -2.3137    0.0000 C   0  0  0  0  0  0  0  0  0  0  0  0
  1  2  1  0  0  0  0
  2  3  1  0  0  0  0
  3  4  1  0  0  0  0
  4  5  2  0  0  0  0
  4  6  1  0  0  0  0
  6  7  4  0  0  0  0
  7  8  4  0  0  0  0
  8  9  1  0  0  0  0
  9 10  1  0  0  0  0
 10 11  4  0  0  0  0
 11 12  4  0  0  0  0
 12 13  4  0  0  0  0
 13 14  1  0  0  0  0
 13 15  4  0  0  0  0
 15 16  1  0  0  0  0
 15 17  4  0  0  0  0
 10 17  4  0  0  0  0
  8 18  4  0  0  0  0
 18 19  4  0  0  0  0
  6 19  4  0  0  0  0
 19 20  1  0  0  0  0
 20 21  1  0  0  0  0
 20 22  1  0  0  0  0
 20 23  1  0  0  0  0
M  END
> <IC50(uM)>
0.515

> <Outcome>
1.0

> <BindingDB ID>
50312274

> <BindingDB MonomerID>
50071627

> <BindingDB Ligand Name>
CHEMBL3410591

> <Curation/DataSource>
ChEMBL

> <Article DOI>
10.1021/jm501127s

> <PMID>
25580811

> <Patent Number>
?

> <Authors>
Zhu, J; Han, L; Diao, Y; Ren, X; Xu, M; Xu, L; Li, S; Li, Q; Dong, D; Huang, J; Liu, X; Zhao, Z; Wang, R; Zhu, L; Xu, Y; Qian, X; Li, H

> <Link to Ligand in BindingDB>
http://www.bindingdb.org/bind/chemsearch/marvin/MolStructure.jsp?monomerid=50071627

> <Link to Ligand-Target Pair in BindingDB>
http://www.bindingdb.org/jsp/dbsearch/PrimarySearch_ki.jsp?energyterm=kJ/mole&tag=r21&monomerid=50071627&enzyme=Dihydroorotate+dehydrogenase&column=ki&startPg=0&Increment=50&submit=Search

> <PubChem CID>
118732507

> <PubChem SID>
313072559

$$$$

  Mrv2115 07222212352D          

 31 33  0  0  0  0            999 V2000
   -2.1434   -1.2375    0.0000 C   0  0  0  0  0  0  0  0  0  0  0  0
   -1.4289   -1.6500    0.0000 C   0  0  0  0  0  0  0  0  0  0  0  0
   -0.7145   -1.2375    0.0000 C   0  0  0  0  0  0  0  0  0  0  0  0
    0.0000   -1.6500    0.0000 C   0  0  0  0  0  0  0  0  0  0  0  0
    0.0000   -2.4750    0.0000 C   0  0  0  0  0  0  0  0  0  0  0  0
    0.7145   -1.2375    0.0000 O   0  0  0  0  0  0  0  0  0  0  0  0
    0.7145   -0.4125    0.0000 C   0  0  0  0  0  0  0  0  0  0  0  0
    0.0000    0.0000    0.0000 C   0  0  0  0  0  0  0  0  0  0  0  0
    0.0000    0.8250    0.0000 C   0  0  0  0  0  0  0  0  0  0  0  0
   -0.7145    1.2375    0.0000 N   0  0  0  0  0  0  0  0  0  0  0  0
   -1.4681    0.9019    0.0000 N   0  0  0  0  0  0  0  0  0  0  0  0
   -2.0202    1.5150    0.0000 C   0  0  0  0  0  0  0  0  0  0  0  0
   -2.8407    1.4288    0.0000 C   0  0  0  0  0  0  0  0  0  0  0  0
   -3.3256    2.0962    0.0000 C   0  0  0  0  0  0  0  0  0  0  0  0
   -1.6077    2.2295    0.0000 N   0  0  0  0  0  0  0  0  0  0  0  0
   -1.9432    2.9832    0.0000 C   0  0  0  0  0  0  0  0  0  0  0  0
   -0.8007    2.0580    0.0000 C   0  0  0  0  0  0  0  0  0  0  0  0
   -0.1876    2.6100    0.0000 O   0  0  0  0  0  0  0  0  0  0  0  0
    0.7145    1.2375    0.0000 C   0  0  0  0  0  0  0  0  0  0  0  0
    0.7145    2.0625    0.0000 F   0  0  0  0  0  0  0  0  0  0  0  0
    1.4289    0.8250    0.0000 C   0  0  0  0  0  0  0  0  0  0  0  0
    1.4289    0.0000    0.0000 C   0  0  0  0  0  0  0  0  0  0  0  0
    2.1434   -0.4125    0.0000 C   0  0  0  0  0  0  0  0  0  0  0  0
    2.8579    0.0000    0.0000 O   0  0  0  0  0  0  0  0  0  0  0  0
    2.1434   -1.2375    0.0000 N   0  0  0  0  0  0  0  0  0  0  0  0
    1.4289   -1.6500    0.0000 C   0  0  0  0  0  0  0  0  0  0  0  0
    1.4289   -2.4750    0.0000 C   0  0  0  0  0  0  0  0  0  0  0  0
    2.0964   -2.9599    0.0000 C   0  0  0  0  0  0  0  0  0  0  0  0
    1.8414   -3.7445    0.0000 C   0  0  0  0  0  0  0  0  0  0  0  0
    1.0164   -3.7445    0.0000 C   0  0  0  0  0  0  0  0  0  0  0  0
    0.7615   -2.9599    0.0000 C   0  0  0  0  0  0  0  0  0  0  0  0
  1  2  1  0  0  0  0
  2  3  1  0  0  0  0
  3  4  1  0  0  0  0
  4  5  1  0  0  0  0
  4  6  1  0  0  0  0
  6  7  1  0  0  0  0
  7  8  4  0  0  0  0
  8  9  4  0  0  0  0
  9 10  1  0  0  0  0
 10 11  4  0  0  0  0
 11 12  4  0  0  0  0
 12 13  1  0  0  0  0
 13 14  1  0  0  0  0
 12 15  4  0  0  0  0
 15 16  1  0  0  0  0
 15 17  4  0  0  0  0
 10 17  4  0  0  0  0
 17 18  2  0  0  0  0
  9 19  4  0  0  0  0
 19 20  1  0  0  0  0
 19 21  4  0  0  0  0
 21 22  4  0  0  0  0
  7 22  4  0  0  0  0
 22 23  1  0  0  0  0
 23 24  2  0  0  0  0
 23 25  1  0  0  0  0
 25 26  1  0  0  0  0
 26 27  1  0  0  0  0
 27 28  1  0  0  0  0
 28 29  1  0  0  0  0
 29 30  1  0  0  0  0
 30 31  1  0  0  0  0
 27 31  1  0  0  0  0
M  END
> <IC50(uM)>
2.0

> <Outcome>
0.0

> <BindingDB ID>
1098660; 972506

> <BindingDB MonomerID>
470383

> <BindingDB Ligand Name>
N-(cyclopentylmethyl)-4-(3-ethyl-4-methyl-5-oxo-4,5-dihydro-1H-1,2,4-triazol-1-yl)-5-fluoro-2-[(2S)-pentan-2-yloxy]benzamide::US10815215, Example 42::US11130745, Example 42; N-(cyclopentylmethyl)-4-(3-ethyl-4-methyl-5-oxo-4,5-dihydro-1H-1,2,4-triazol-1-yl)-5-fluoro-2-[(2S)-pentan-2-yloxy]benzamide::US10815215, Example 42

> <Curation/DataSource>
US Patent

> <Article DOI>
?

> <PMID>
?

> <Patent Number>
US11130745; US10815215

> <Authors>
Gradl, SN; Nguyen, D; Eis, K; Gunther, J; Stellfeld, T; Janzer, A; Christian, S; Muller, T; Sheikh, SE; Sykes, DB; Ferrara, SJ; Krober, M; Merz, C; Niehues, M; Schafer, M; Zimmermann, K; Nising, CF; Gradl, SN; Nguyen, D; Eis, K; Gunther, J; Stellfeld, T; Janzer, A; Christian, S; Muller, T; Sheikh, SE; Zhou, HJ; Zhao, C; Sykes, DB; Ferrara, SJ; Liu, K; Krober, M; Merz, C; Niehues, M; Schafer, M; Zimmermann, K; Nising, CF

> <Link to Ligand in BindingDB>
http://www.bindingdb.org/bind/chemsearch/marvin/MolStructure.jsp?monomerid=470383

> <Link to Ligand-Target Pair in BindingDB>
http://www.bindingdb.org/jsp/dbsearch/PrimarySearch_ki.jsp?energyterm=kJ/mole&tag=r21&monomerid=470383&enzyme=Dihydroorotate+dehydrogenase&column=ki&startPg=0&Increment=50&submit=Search

> <PubChem CID>
134470231

> <PubChem SID>
441609560

$$$$

  Mrv2115 07222212352D          

 17 18  0  0  0  0            999 V2000
    1.4289    0.0000    0.0000 O   0  0  0  0  0  0  0  0  0  0  0  0
    2.1434   -0.4125    0.0000 C   0  0  0  0  0  0  0  0  0  0  0  0
    2.8579    0.0000    0.0000 O   0  0  0  0  0  0  0  0  0  0  0  0
    2.1434   -1.2375    0.0000 C   0  0  0  0  0  0  0  0  0  0  0  0
    1.4289   -1.6500    0.0000 C   0  0  0  0  0  0  0  0  0  0  0  0
    1.4289   -2.4750    0.0000 C   0  0  0  0  0  0  0  0  0  0  0  0
    2.1434   -2.8875    0.0000 C   0  0  0  0  0  0  0  0  0  0  0  0
    2.8579   -2.4750    0.0000 N   0  0  0  0  0  0  0  0  0  0  0  0
    2.8579   -1.6500    0.0000 C   0  0  0  0  0  0  0  0  0  0  0  0
    3.5724   -1.2375    0.0000 N   0  0  0  0  0  0  0  0  0  0  0  0
    4.2868   -1.6500    0.0000 C   0  0  0  0  0  0  0  0  0  0  0  0
    5.0013   -1.2375    0.0000 C   0  0  0  0  0  0  0  0  0  0  0  0
    5.7158   -1.6500    0.0000 C   0  0  0  0  0  0  0  0  0  0  0  0
    5.7158   -2.4750    0.0000 C   0  0  0  0  0  0  0  0  0  0  0  0
    6.4302   -2.8875    0.0000 Cl  0  0  0  0  0  0  0  0  0  0  0  0
    5.0013   -2.8875    0.0000 C   0  0  0  0  0  0  0  0  0  0  0  0
    4.2868   -2.4750    0.0000 C   0  0  0  0  0  0  0  0  0  0  0  0
  1  2  2  0  0  0  0
  2  3  1  0  0  0  0
  2  4  1  0  0  0  0
  4  5  4  0  0  0  0
  5  6  4  0  0  0  0
  6  7  4  0  0  0  0
  7  8  4  0  0  0  0
  8  9  4  0  0  0  0
  4  9  4  0  0  0  0
  9 10  1  0  0  0  0
 10 11  1  0  0  0  0
 11 12  4  0  0  0  0
 12 13  4  0  0  0  0
 13 14  4  0  0  0  0
 14 15  1  0  0  0  0
 14 16  4  0  0  0  0
 16 17  4  0  0  0  0
 11 17  4  0  0  0  0
M  END
> <IC50(uM)>
0.4

> <Outcome>
1.0

> <BindingDB ID>
50527775

> <BindingDB MonomerID>
50201619

> <BindingDB Ligand Name>
CHEMBL1237007

> <Curation/DataSource>
ChEMBL

> <Article DOI>
10.1021/acsmedchemlett.6b00316

> <PMID>
27994748

> <Patent Number>
?

> <Authors>
Lewis, TA; Sykes, DB; Law, JM; Mu??oz, B; Rustiguel, JK; Nonato, MC; Scadden, DT; Schreiber, SL

> <Link to Ligand in BindingDB>
http://www.bindingdb.org/bind/chemsearch/marvin/MolStructure.jsp?monomerid=50201619

> <Link to Ligand-Target Pair in BindingDB>
http://www.bindingdb.org/jsp/dbsearch/PrimarySearch_ki.jsp?energyterm=kJ/mole&tag=r21&monomerid=50201619&enzyme=Dihydroorotate+dehydrogenase&column=ki&startPg=0&Increment=50&submit=Search

> <PubChem CID>
1432578

> <PubChem SID>
375979407

$$$$

  Mrv2115 07222212352D          

 23 25  0  0  0  0            999 V2000
    1.8409   -1.9019    0.0000 C   0  0  0  0  0  0  0  0  0  0  0  0
    2.6256   -1.6470    0.0000 C   0  0  0  0  0  0  0  0  0  0  0  0
    2.8805   -0.8624    0.0000 C   0  0  0  0  0  0  0  0  0  0  0  0
    2.3956   -0.1949    0.0000 C   0  0  0  0  0  0  0  0  0  0  0  0
    2.7311    0.5587    0.0000 C   0  0  0  0  0  0  0  0  0  0  0  0
    2.2462    1.2262    0.0000 C   0  0  0  0  0  0  0  0  0  0  0  0
    2.5818    1.9799    0.0000 N   0  0  0  0  0  0  0  0  0  0  0  0
    3.4023    2.0661    0.0000 C   0  0  0  0  0  0  0  0  0  0  0  0
    3.7378    2.8198    0.0000 C   0  0  0  0  0  0  0  0  0  0  0  0
    4.0734    3.5734    0.0000 F   0  0  0  0  0  0  0  0  0  0  0  0
    2.9841    3.1553    0.0000 F   0  0  0  0  0  0  0  0  0  0  0  0
    4.4915    2.4842    0.0000 F   0  0  0  0  0  0  0  0  0  0  0  0
    3.8872    1.3987    0.0000 N   0  0  0  0  0  0  0  0  0  0  0  0
    3.5516    0.6450    0.0000 C   0  0  0  0  0  0  0  0  0  0  0  0
    3.7055   -0.8624    0.0000 C   0  0  0  0  0  0  0  0  0  0  0  0
    3.9604   -1.6470    0.0000 N   0  0  0  0  0  0  0  0  0  0  0  0
    3.2930   -2.1319    0.0000 C   0  0  0  0  0  0  0  0  0  0  0  0
    3.2930   -2.9569    0.0000 C   0  0  0  0  0  0  0  0  0  0  0  0
    2.5785   -3.3694    0.0000 O   0  0  0  0  0  0  0  0  0  0  0  0
    4.0075   -3.3694    0.0000 N   0  0  0  0  0  0  0  0  0  0  0  0
    4.0075   -4.1944    0.0000 C   0  0  0  0  0  0  0  0  0  0  0  0
    4.4200   -4.9089    0.0000 C   0  0  0  0  0  0  0  0  0  0  0  0
    3.5950   -4.9089    0.0000 C   0  0  0  0  0  0  0  0  0  0  0  0
  1  2  1  0  0  0  0
  2  3  4  0  0  0  0
  3  4  1  0  0  0  0
  4  5  1  0  0  0  0
  5  6  4  0  0  0  0
  6  7  4  0  0  0  0
  7  8  4  0  0  0  0
  8  9  1  0  0  0  0
  9 10  1  0  0  0  0
  9 11  1  0  0  0  0
  9 12  1  0  0  0  0
  8 13  4  0  0  0  0
 13 14  4  0  0  0  0
  5 14  4  0  0  0  0
  3 15  4  0  0  0  0
 15 16  4  0  0  0  0
 16 17  4  0  0  0  0
  2 17  4  0  0  0  0
 17 18  1  0  0  0  0
 18 19  2  0  0  0  0
 18 20  1  0  0  0  0
 20 21  1  0  0  0  0
 21 22  1  0  0  0  0
 22 23  1  0  0  0  0
 21 23  1  0  0  0  0
M  STY  1   1 DAT
M  SAL   1  1  16
M  SDT   1 MRV_IMPLICIT_H                                        
M  SDD   1     0.5304   -0.4125    DR    ALL  0       0  
M  SED   1 IMPL_H1
M  END
> <IC50(uM)>
100.0

> <Outcome>
0.0

> <BindingDB ID>
51330107

> <BindingDB MonomerID>
50538355

> <BindingDB Ligand Name>
CHEMBL4636244

> <Curation/DataSource>
ChEMBL

> <Article DOI>
10.1021/acs.jmedchem.0c00311

> <PMID>
32248693

> <Patent Number>
?

> <Authors>
Kokkonda, S; Deng, X; White, KL; El Mazouni, F; White, J; Shackleford, DM; Katneni, K; Chiu, FCK; Barker, H; McLaren, J; Crighton, E; Chen, G; Angulo-Barturen, I; Jimenez-Diaz, MB; Ferrer, S; Huertas-Valentin, L; Martinez-Martinez, MS; Lafuente-Monasterio, MJ; Chittimalla, R; Shahi, SP; Wittlin, S; Waterson, D; Burrows, JN; Matthews, D; Tomchick, D; Rathod, PK; Palmer, MJ; Charman, SA; Phillips, MA

> <Link to Ligand in BindingDB>
http://www.bindingdb.org/bind/chemsearch/marvin/MolStructure.jsp?monomerid=50538355

> <Link to Ligand-Target Pair in BindingDB>
http://www.bindingdb.org/jsp/dbsearch/PrimarySearch_ki.jsp?energyterm=kJ/mole&tag=r21&monomerid=50538355&enzyme=Dihydroorotate+dehydrogenase&column=ki&startPg=0&Increment=50&submit=Search

> <PubChem CID>
156013774

> <PubChem SID>
442139918

$$$$

  Mrv2115 07222212352D          

 29 32  0  0  0  0            999 V2000
    2.5559   -1.8243    0.0000 O   0  0  0  0  0  0  0  0  0  0  0  0
    2.5559   -2.6493    0.0000 C   0  0  0  0  0  0  0  0  0  0  0  0
    1.8414   -3.0618    0.0000 O   0  0  0  0  0  0  0  0  0  0  0  0
    3.2704   -3.0618    0.0000 C   0  0  0  0  0  0  0  0  0  0  0  0
    3.2704   -3.8868    0.0000 C   0  0  0  0  0  0  0  0  0  0  0  0
    3.9849   -4.2993    0.0000 C   0  0  0  0  0  0  0  0  0  0  0  0
    3.9849   -5.1243    0.0000 C   0  0  0  0  0  0  0  0  0  0  0  0
    4.3974   -5.8388    0.0000 C   0  0  0  0  0  0  0  0  0  0  0  0
    3.5724   -5.8388    0.0000 C   0  0  0  0  0  0  0  0  0  0  0  0
    4.6993   -3.8868    0.0000 C   0  0  0  0  0  0  0  0  0  0  0  0
    4.6993   -3.0618    0.0000 C   0  0  0  0  0  0  0  0  0  0  0  0
    3.9849   -2.6493    0.0000 C   0  0  0  0  0  0  0  0  0  0  0  0
    3.9849   -1.8243    0.0000 N   0  0  0  0  0  0  0  0  0  0  0  0
    4.6993   -1.4118    0.0000 C   0  0  0  0  0  0  0  0  0  0  0  0
    4.6993   -0.5868    0.0000 C   0  0  0  0  0  0  0  0  0  0  0  0
    5.4138   -0.1743    0.0000 N   0  0  0  0  0  0  0  0  0  0  0  0
    6.1283   -0.5868    0.0000 C   0  0  0  0  0  0  0  0  0  0  0  0
    6.8427   -0.1743    0.0000 C   0  0  0  0  0  0  0  0  0  0  0  0
    6.8427    0.6507    0.0000 C   0  0  0  0  0  0  0  0  0  0  0  0
    7.5572    1.0632    0.0000 C   0  0  0  0  0  0  0  0  0  0  0  0
    8.2717    0.6507    0.0000 C   0  0  0  0  0  0  0  0  0  0  0  0
    8.2717   -0.1743    0.0000 C   0  0  0  0  0  0  0  0  0  0  0  0
    7.5572   -0.5868    0.0000 C   0  0  0  0  0  0  0  0  0  0  0  0
    6.1283   -1.4118    0.0000 C   0  0  0  0  0  0  0  0  0  0  0  0
    6.8427   -1.8243    0.0000 C   0  0  0  0  0  0  0  0  0  0  0  0
    7.5572   -2.2368    0.0000 F   0  0  0  0  0  0  0  0  0  0  0  0
    6.4302   -2.5388    0.0000 F   0  0  0  0  0  0  0  0  0  0  0  0
    7.2552   -1.1099    0.0000 F   0  0  0  0  0  0  0  0  0  0  0  0
    5.4138   -1.8243    0.0000 C   0  0  0  0  0  0  0  0  0  0  0  0
  1  2  2  0  0  0  0
  2  3  1  0  0  0  0
  2  4  1  0  0  0  0
  4  5  4  0  0  0  0
  5  6  4  0  0  0  0
  6  7  1  0  0  0  0
  7  8  1  0  0  0  0
  8  9  1  0  0  0  0
  7  9  1  0  0  0  0
  6 10  4  0  0  0  0
 10 11  4  0  0  0  0
 11 12  4  0  0  0  0
  4 12  4  0  0  0  0
 12 13  1  0  0  0  0
 13 14  1  0  0  0  0
 14 15  4  0  0  0  0
 15 16  4  0  0  0  0
 16 17  4  0  0  0  0
 17 18  1  0  0  0  0
 18 19  4  0  0  0  0
 19 20  4  0  0  0  0
 20 21  4  0  0  0  0
 21 22  4  0  0  0  0
 22 23  4  0  0  0  0
 18 23  4  0  0  0  0
 17 24  4  0  0  0  0
 24 25  1  0  0  0  0
 25 26  1  0  0  0  0
 25 27  1  0  0  0  0
 25 28  1  0  0  0  0
 24 29  4  0  0  0  0
 14 29  4  0  0  0  0
M  END
> <IC50(uM)>
0.002

> <Outcome>
1.0

> <BindingDB ID>
220012

> <BindingDB MonomerID>
102482

> <BindingDB Ligand Name>
US8536165, 81

> <Curation/DataSource>
US Patent

> <Article DOI>
?

> <PMID>
?

> <Patent Number>
US8536165

> <Authors>
Castro Palomino Laria, JC; Terricabras Belart, E; Erra Sola, M; Navarro Romero, E; Fonquerna Pou, S; Cardus Figueras, A; Lozoya Toribio, ME

> <Link to Ligand in BindingDB>
http://www.bindingdb.org/bind/chemsearch/marvin/MolStructure.jsp?monomerid=102482

> <Link to Ligand-Target Pair in BindingDB>
http://www.bindingdb.org/jsp/dbsearch/PrimarySearch_ki.jsp?energyterm=kJ/mole&tag=r21&monomerid=102482&enzyme=Dihydroorotate+dehydrogenase&column=ki&startPg=0&Increment=50&submit=Search

> <PubChem CID>
25164124

> <PubChem SID>
172097773

$$$$

  Mrv2115 07222212352D          

 28 30  0  0  0  0            999 V2000
    1.8907   -0.0517    0.0000 C   0  0  0  0  0  0  0  0  0  0  0  0
    2.0622    0.7553    0.0000 C   0  0  0  0  0  0  0  0  0  0  0  0
    2.8468    1.0102    0.0000 O   0  0  0  0  0  0  0  0  0  0  0  0
    3.0183    1.8172    0.0000 C   0  0  0  0  0  0  0  0  0  0  0  0
    2.4052    2.3692    0.0000 O   0  0  0  0  0  0  0  0  0  0  0  0
    3.8030    2.0721    0.0000 C   0  0  0  0  0  0  0  0  0  0  0  0
    4.0579    2.8568    0.0000 S   0  0  0  0  0  0  0  0  0  0  0  0
    4.8829    2.8568    0.0000 C   0  0  0  0  0  0  0  0  0  0  0  0
    5.3678    3.5242    0.0000 N   0  0  0  0  0  0  0  0  0  0  0  0
    6.1883    3.4380    0.0000 C   0  0  0  0  0  0  0  0  0  0  0  0
    6.6732    4.1054    0.0000 C   0  0  0  0  0  0  0  0  0  0  0  0
    7.4937    4.0192    0.0000 C   0  0  0  0  0  0  0  0  0  0  0  0
    7.8293    3.2655    0.0000 C   0  0  0  0  0  0  0  0  0  0  0  0
    8.6497    3.1793    0.0000 Cl  0  0  0  0  0  0  0  0  0  0  0  0
    7.3443    2.5980    0.0000 C   0  0  0  0  0  0  0  0  0  0  0  0
    7.6799    1.8444    0.0000 C   0  0  0  0  0  0  0  0  0  0  0  0
    8.0155    1.0907    0.0000 F   0  0  0  0  0  0  0  0  0  0  0  0
    6.9262    1.5088    0.0000 F   0  0  0  0  0  0  0  0  0  0  0  0
    8.4336    2.1799    0.0000 F   0  0  0  0  0  0  0  0  0  0  0  0
    6.5239    2.6843    0.0000 C   0  0  0  0  0  0  0  0  0  0  0  0
    5.1378    2.0721    0.0000 N   0  0  0  0  0  0  0  0  0  0  0  0
    4.4704    1.5872    0.0000 C   0  0  0  0  0  0  0  0  0  0  0  0
    4.4704    0.7622    0.0000 N   0  0  0  0  0  0  0  0  0  0  0  0
    5.1849    0.3497    0.0000 C   0  0  0  0  0  0  0  0  0  0  0  0
    5.8993    0.7622    0.0000 O   0  0  0  0  0  0  0  0  0  0  0  0
    5.1849   -0.4753    0.0000 C   0  0  0  0  0  0  0  0  0  0  0  0
    5.5974   -1.1898    0.0000 C   0  0  0  0  0  0  0  0  0  0  0  0
    4.7724   -1.1898    0.0000 C   0  0  0  0  0  0  0  0  0  0  0  0
  1  2  1  0  0  0  0
  2  3  1  0  0  0  0
  3  4  1  0  0  0  0
  4  5  2  0  0  0  0
  4  6  1  0  0  0  0
  6  7  4  0  0  0  0
  7  8  4  0  0  0  0
  8  9  1  0  0  0  0
  9 10  1  0  0  0  0
 10 11  4  0  0  0  0
 11 12  4  0  0  0  0
 12 13  4  0  0  0  0
 13 14  1  0  0  0  0
 13 15  4  0  0  0  0
 15 16  1  0  0  0  0
 16 17  1  0  0  0  0
 16 18  1  0  0  0  0
 16 19  1  0  0  0  0
 15 20  4  0  0  0  0
 10 20  4  0  0  0  0
  8 21  4  0  0  0  0
 21 22  4  0  0  0  0
  6 22  4  0  0  0  0
 22 23  1  0  0  0  0
 23 24  1  0  0  0  0
 24 25  2  0  0  0  0
 24 26  1  0  0  0  0
 26 27  1  0  0  0  0
 27 28  1  0  0  0  0
 26 28  1  0  0  0  0
M  END
> <IC50(uM)>
6.04

> <Outcome>
0.0

> <BindingDB ID>
50312423

> <BindingDB MonomerID>
50071756

> <BindingDB Ligand Name>
CHEMBL3410585

> <Curation/DataSource>
ChEMBL

> <Article DOI>
10.1021/jm501127s

> <PMID>
25580811

> <Patent Number>
?

> <Authors>
Zhu, J; Han, L; Diao, Y; Ren, X; Xu, M; Xu, L; Li, S; Li, Q; Dong, D; Huang, J; Liu, X; Zhao, Z; Wang, R; Zhu, L; Xu, Y; Qian, X; Li, H

> <Link to Ligand in BindingDB>
http://www.bindingdb.org/bind/chemsearch/marvin/MolStructure.jsp?monomerid=50071756

> <Link to Ligand-Target Pair in BindingDB>
http://www.bindingdb.org/jsp/dbsearch/PrimarySearch_ki.jsp?energyterm=kJ/mole&tag=r21&monomerid=50071756&enzyme=Dihydroorotate+dehydrogenase&column=ki&startPg=0&Increment=50&submit=Search

> <PubChem CID>
118732501

> <PubChem SID>
103965466

$$$$

  Mrv2115 07222212352D          

 32 35  0  0  0  0            999 V2000
    2.1434   -2.8875    0.0000 C   0  0  0  0  0  0  0  0  0  0  0  0
    1.4289   -2.4750    0.0000 C   0  0  0  0  0  0  0  0  0  0  0  0
    0.7145   -2.8875    0.0000 C   0  0  0  0  0  0  0  0  0  0  0  0
    1.4289   -1.6500    0.0000 C   0  0  0  0  0  0  0  0  0  0  0  0
    0.7145   -1.2375    0.0000 C   0  0  0  0  0  0  0  0  0  0  0  0
    0.7145   -0.4125    0.0000 N   0  0  0  0  0  0  0  0  0  0  0  0
    0.0000    0.0000    0.0000 C   0  0  0  0  0  0  0  0  0  0  0  0
   -0.7145   -0.4125    0.0000 C   0  0  0  0  0  0  0  0  0  0  0  0
   -1.4289    0.0000    0.0000 C   0  0  0  0  0  0  0  0  0  0  0  0
   -1.4289    0.8250    0.0000 C   0  0  0  0  0  0  0  0  0  0  0  0
   -0.7145    1.2375    0.0000 C   0  0  0  0  0  0  0  0  0  0  0  0
    0.0000    0.8250    0.0000 C   0  0  0  0  0  0  0  0  0  0  0  0
    0.7145    1.2375    0.0000 F   0  0  0  0  0  0  0  0  0  0  0  0
    1.4289    0.0000    0.0000 C   0  0  0  0  0  0  0  0  0  0  0  0
    1.4289    0.8250    0.0000 O   0  0  0  0  0  0  0  0  0  0  0  0
    2.1434   -0.4125    0.0000 C   0  0  0  0  0  0  0  0  0  0  0  0
    2.8579    0.0000    0.0000 C   0  0  0  0  0  0  0  0  0  0  0  0
    3.5724   -0.4125    0.0000 C   0  0  0  0  0  0  0  0  0  0  0  0
    4.2868   -0.0000    0.0000 F   0  0  0  0  0  0  0  0  0  0  0  0
    3.5724   -1.2375    0.0000 C   0  0  0  0  0  0  0  0  0  0  0  0
    4.2868   -1.6500    0.0000 N   0  0  0  0  0  0  0  0  0  0  0  0
    5.0405   -1.3144    0.0000 N   0  0  0  0  0  0  0  0  0  0  0  0
    5.5925   -1.9275    0.0000 C   0  0  0  0  0  0  0  0  0  0  0  0
    6.4130   -1.8413    0.0000 C   0  0  0  0  0  0  0  0  0  0  0  0
    6.7486   -1.0876    0.0000 O   0  0  0  0  0  0  0  0  0  0  0  0
    5.1800   -2.6420    0.0000 N   0  0  0  0  0  0  0  0  0  0  0  0
    5.5156   -3.3957    0.0000 C   0  0  0  0  0  0  0  0  0  0  0  0
    5.0307   -4.0631    0.0000 C   0  0  0  0  0  0  0  0  0  0  0  0
    4.3731   -2.4705    0.0000 C   0  0  0  0  0  0  0  0  0  0  0  0
    3.7600   -3.0225    0.0000 O   0  0  0  0  0  0  0  0  0  0  0  0
    2.8579   -1.6500    0.0000 C   0  0  0  0  0  0  0  0  0  0  0  0
    2.1434   -1.2375    0.0000 C   0  0  0  0  0  0  0  0  0  0  0  0
  1  2  2  0  0  0  0
  2  3  1  0  0  0  0
  2  4  1  0  0  0  0
  4  5  4  0  0  0  0
  5  6  4  0  0  0  0
  6  7  1  0  0  0  0
  7  8  4  0  0  0  0
  8  9  4  0  0  0  0
  9 10  4  0  0  0  0
 10 11  4  0  0  0  0
 11 12  4  0  0  0  0
  7 12  4  0  0  0  0
 12 13  1  0  0  0  0
  6 14  4  0  0  0  0
 14 15  2  0  0  0  0
 14 16  4  0  0  0  0
 16 17  4  0  0  0  0
 17 18  4  0  0  0  0
 18 19  1  0  0  0  0
 18 20  4  0  0  0  0
 20 21  1  0  0  0  0
 21 22  4  0  0  0  0
 22 23  4  0  0  0  0
 23 24  1  0  0  0  0
 24 25  1  0  0  0  0
 23 26  4  0  0  0  0
 26 27  1  0  0  0  0
 27 28  1  0  0  0  0
 26 29  4  0  0  0  0
 21 29  4  0  0  0  0
 29 30  2  0  0  0  0
 20 31  4  0  0  0  0
 31 32  4  0  0  0  0
  4 32  4  0  0  0  0
 16 32  4  0  0  0  0
M  END
> <IC50(uM)>
1.6900000000000002E-4

> <Outcome>
1.0

> <BindingDB ID>
51360200

> <BindingDB MonomerID>
50549950

> <BindingDB Ligand Name>
CHEMBL4751541

> <Curation/DataSource>
ChEMBL

> <Article DOI>
?

> <PMID>
33603957

> <Patent Number>
?

> <Authors>
Sabnis, RW

> <Link to Ligand in BindingDB>
http://www.bindingdb.org/bind/chemsearch/marvin/MolStructure.jsp?monomerid=50549950

> <Link to Ligand-Target Pair in BindingDB>
http://www.bindingdb.org/jsp/dbsearch/PrimarySearch_ki.jsp?energyterm=kJ/mole&tag=r21&monomerid=50549950&enzyme=Dihydroorotate+dehydrogenase&column=ki&startPg=0&Increment=50&submit=Search

> <PubChem CID>
155209488

> <PubChem SID>
461680290

$$$$

  Mrv2115 07222212352D          

 27 30  0  0  0  0            999 V2000
    3.9934    5.7750    0.0000 C   0  0  0  0  0  0  0  0  0  0  0  0
    3.9934    4.9500    0.0000 C   0  0  0  0  0  0  0  0  0  0  0  0
    4.7079    4.5375    0.0000 C   0  0  0  0  0  0  0  0  0  0  0  0
    4.7079    3.7125    0.0000 N   0  0  0  0  0  0  0  0  0  0  0  0
    3.9934    3.3000    0.0000 C   0  0  0  0  0  0  0  0  0  0  0  0
    3.9934    2.4750    0.0000 C   0  0  0  0  0  0  0  0  0  0  0  0
    4.7079    2.0625    0.0000 O   0  0  0  0  0  0  0  0  0  0  0  0
    3.2789    2.0625    0.0000 N   0  0  0  0  0  0  0  0  0  0  0  0
    3.2789    1.2375    0.0000 C   0  0  0  0  0  0  0  0  0  0  0  0
    3.9934    0.8250    0.0000 C   0  0  0  0  0  0  0  0  0  0  0  0
    3.9934    0.0000    0.0000 C   0  0  0  0  0  0  0  0  0  0  0  0
    3.2789   -0.4125    0.0000 C   0  0  0  0  0  0  0  0  0  0  0  0
    2.5645    0.0000    0.0000 C   0  0  0  0  0  0  0  0  0  0  0  0
    2.5645    0.8250    0.0000 C   0  0  0  0  0  0  0  0  0  0  0  0
    1.7798    1.0799    0.0000 C   0  0  0  0  0  0  0  0  0  0  0  0
    1.2949    0.4125    0.0000 N   0  0  0  0  0  0  0  0  0  0  0  0
    1.7798   -0.2549    0.0000 N   0  0  0  0  0  0  0  0  0  0  0  0
    1.5249   -1.0396    0.0000 C   0  0  0  0  0  0  0  0  0  0  0  0
    2.0769   -1.6527    0.0000 C   0  0  0  0  0  0  0  0  0  0  0  0
    1.8220   -2.4373    0.0000 C   0  0  0  0  0  0  0  0  0  0  0  0
    1.0150   -2.6088    0.0000 C   0  0  0  0  0  0  0  0  0  0  0  0
    0.4630   -1.9957    0.0000 C   0  0  0  0  0  0  0  0  0  0  0  0
    0.7179   -1.2111    0.0000 C   0  0  0  0  0  0  0  0  0  0  0  0
    0.1659   -0.5980    0.0000 F   0  0  0  0  0  0  0  0  0  0  0  0
    3.2789    3.7125    0.0000 C   0  0  0  0  0  0  0  0  0  0  0  0
    3.2789    4.5375    0.0000 C   0  0  0  0  0  0  0  0  0  0  0  0
    2.5645    4.9500    0.0000 C   0  0  0  0  0  0  0  0  0  0  0  0
  1  2  1  0  0  0  0
  2  3  4  0  0  0  0
  3  4  4  0  0  0  0
  4  5  4  0  0  0  0
  5  6  1  0  0  0  0
  6  7  2  0  0  0  0
  6  8  1  0  0  0  0
  8  9  1  0  0  0  0
  9 10  1  0  0  0  0
 10 11  1  0  0  0  0
 11 12  1  0  0  0  0
 12 13  1  0  0  0  0
 13 14  4  0  0  0  0
  9 14  1  0  0  0  0
 14 15  4  0  0  0  0
 15 16  4  0  0  0  0
 16 17  4  0  0  0  0
 13 17  4  0  0  0  0
 17 18  1  0  0  0  0
 18 19  4  0  0  0  0
 19 20  4  0  0  0  0
 20 21  4  0  0  0  0
 21 22  4  0  0  0  0
 22 23  4  0  0  0  0
 18 23  4  0  0  0  0
 23 24  1  0  0  0  0
  5 25  4  0  0  0  0
 25 26  4  0  0  0  0
  2 26  4  0  0  0  0
 26 27  1  0  0  0  0
M  END
> <IC50(uM)>
0.027000000000000003

> <Outcome>
1.0

> <BindingDB ID>
51334948; 993112

> <BindingDB MonomerID>
477614

> <BindingDB Ligand Name>
N-[(4R)-1-(2-fluorophenyl)-4,5,6,7-tetrahydro-1H-indazol-4-yl]-4,5-dimethylpyridine-2-carboxamide::US10889564, Example 44

> <Curation/DataSource>
ChEMBL; US Patent

> <Article DOI>
10.1021/acs.jmedchem.9b01658; ?

> <PMID>
32212728; ?

> <Patent Number>
?; US10889564

> <Authors>
Popova, G; Ladds, MJGW; Johansson, L; Saleh, A; Larsson, J; Sandberg, L; Sahlberg, SH; Qian, W; Gullberg, H; Garg, N; Gustavsson, AL; Haraldsson, M; Lane, D; Yngve, U; Lain, S; Lain, S; Drummond, C; Leeuwen, IV; Haraldsson, M; Johansson, L; Sandberg, L; Yngve, U

> <Link to Ligand in BindingDB>
http://www.bindingdb.org/bind/chemsearch/marvin/MolStructure.jsp?monomerid=477614

> <Link to Ligand-Target Pair in BindingDB>
http://www.bindingdb.org/jsp/dbsearch/PrimarySearch_ki.jsp?energyterm=kJ/mole&tag=r21&monomerid=477614&enzyme=Dihydroorotate+dehydrogenase&column=ki&startPg=0&Increment=50&submit=Search

> <PubChem CID>
129104779

> <PubChem SID>
442137231

$$$$

  Mrv2115 07222212352D          

 35 37  0  0  0  0            999 V2000
    0.7145   -2.8875    0.0000 C   0  0  0  0  0  0  0  0  0  0  0  0
    0.7145   -3.7125    0.0000 C   0  0  0  0  0  0  0  0  0  0  0  0
    1.4289   -4.1250    0.0000 C   0  0  0  0  0  0  0  0  0  0  0  0
    1.4289   -4.9500    0.0000 C   0  0  0  0  0  0  0  0  0  0  0  0
    0.7615   -5.4349    0.0000 N   0  0  0  0  0  0  0  0  0  0  0  0
    1.0164   -6.2195    0.0000 N   0  0  0  0  0  0  0  0  0  0  0  0
    0.5315   -6.8870    0.0000 C   0  0  0  0  0  0  0  0  0  0  0  0
    0.8671   -7.6407    0.0000 C   0  0  0  0  0  0  0  0  0  0  0  0
    0.3822   -8.3081    0.0000 C   0  0  0  0  0  0  0  0  0  0  0  0
    0.7177   -9.0618    0.0000 O   0  0  0  0  0  0  0  0  0  0  0  0
    1.5382   -9.1480    0.0000 C   0  0  0  0  0  0  0  0  0  0  0  0
    2.0231   -8.4806    0.0000 C   0  0  0  0  0  0  0  0  0  0  0  0
    1.8738   -9.9017    0.0000 C   0  0  0  0  0  0  0  0  0  0  0  0
    1.1201  -10.2372    0.0000 F   0  0  0  0  0  0  0  0  0  0  0  0
    2.6274   -9.5661    0.0000 F   0  0  0  0  0  0  0  0  0  0  0  0
    2.2093  -10.6554    0.0000 F   0  0  0  0  0  0  0  0  0  0  0  0
   -0.4383   -8.2219    0.0000 C   0  0  0  0  0  0  0  0  0  0  0  0
   -0.9232   -8.8893    0.0000 C   0  0  0  0  0  0  0  0  0  0  0  0
   -1.7437   -8.8031    0.0000 O   0  0  0  0  0  0  0  0  0  0  0  0
   -0.5877   -9.6430    0.0000 N   0  0  0  0  0  0  0  0  0  0  0  0
   -1.0726  -10.3104    0.0000 C   0  0  0  0  0  0  0  0  0  0  0  0
   -0.7371  -11.0641    0.0000 C   0  0  0  0  0  0  0  0  0  0  0  0
    0.0834  -11.1503    0.0000 F   0  0  0  0  0  0  0  0  0  0  0  0
   -1.2220  -11.7315    0.0000 C   0  0  0  0  0  0  0  0  0  0  0  0
   -2.0425  -11.6453    0.0000 C   0  0  0  0  0  0  0  0  0  0  0  0
   -2.3780  -10.8916    0.0000 C   0  0  0  0  0  0  0  0  0  0  0  0
   -1.8931  -10.2242    0.0000 C   0  0  0  0  0  0  0  0  0  0  0  0
   -2.2287   -9.4705    0.0000 F   0  0  0  0  0  0  0  0  0  0  0  0
   -0.7739   -7.4682    0.0000 C   0  0  0  0  0  0  0  0  0  0  0  0
   -0.2890   -6.8007    0.0000 C   0  0  0  0  0  0  0  0  0  0  0  0
   -0.6245   -6.0471    0.0000 F   0  0  0  0  0  0  0  0  0  0  0  0
    1.8414   -6.2195    0.0000 C   0  0  0  0  0  0  0  0  0  0  0  0
    2.3264   -6.8870    0.0000 O   0  0  0  0  0  0  0  0  0  0  0  0
    2.0964   -5.4349    0.0000 N   0  0  0  0  0  0  0  0  0  0  0  0
    2.8810   -5.1800    0.0000 C   0  0  0  0  0  0  0  0  0  0  0  0
  1  2  1  0  0  0  0
  2  3  1  0  0  0  0
  3  4  1  0  0  0  0
  4  5  4  0  0  0  0
  5  6  4  0  0  0  0
  6  7  1  0  0  0  0
  7  8  4  0  0  0  0
  8  9  4  0  0  0  0
  9 10  1  0  0  0  0
 10 11  1  0  0  0  0
 11 12  1  0  0  0  0
 11 13  1  0  0  0  0
 13 14  1  0  0  0  0
 13 15  1  0  0  0  0
 13 16  1  0  0  0  0
  9 17  4  0  0  0  0
 17 18  1  0  0  0  0
 18 19  2  0  0  0  0
 18 20  1  0  0  0  0
 20 21  1  0  0  0  0
 21 22  4  0  0  0  0
 22 23  1  0  0  0  0
 22 24  4  0  0  0  0
 24 25  4  0  0  0  0
 25 26  4  0  0  0  0
 26 27  4  0  0  0  0
 21 27  4  0  0  0  0
 27 28  1  0  0  0  0
 17 29  4  0  0  0  0
 29 30  4  0  0  0  0
  7 30  4  0  0  0  0
 30 31  1  0  0  0  0
  6 32  4  0  0  0  0
 32 33  2  0  0  0  0
 32 34  4  0  0  0  0
  4 34  4  0  0  0  0
 34 35  1  0  0  0  0
M  END
> <IC50(uM)>
0.113

> <Outcome>
1.0

> <BindingDB ID>
972556; 1098710

> <BindingDB MonomerID>
470430

> <BindingDB Ligand Name>
N-(2,6-difluorophenyl)-5-fluoro-4-(4-methyl-5-oxo-3-propyl-4,5-dihydro-1H-1,2,4-triazol-1-yl)-2-{[(2S)-1,1,1-trifluoropropan-2-yl]oxy}benzamide::US10815215, Example 98; N-(2,6-difluorophenyl)-5-fluoro-4-(4-methyl-5-oxo-3-propyl-4,5-dihydro-1H-1,2,4-triazol-1-yl)-2-{[(2S)-1,1,1-trifluoropropan-2-yl]oxy}benzamide::US10815215, Example 98::US11130745, Example 98

> <Curation/DataSource>
US Patent

> <Article DOI>
?

> <PMID>
?

> <Patent Number>
US10815215; US11130745

> <Authors>
Gradl, SN; Nguyen, D; Eis, K; Gunther, J; Stellfeld, T; Janzer, A; Christian, S; Muller, T; Sheikh, SE; Zhou, HJ; Zhao, C; Sykes, DB; Ferrara, SJ; Liu, K; Krober, M; Merz, C; Niehues, M; Schafer, M; Zimmermann, K; Nising, CF; Gradl, SN; Nguyen, D; Eis, K; Gunther, J; Stellfeld, T; Janzer, A; Christian, S; Muller, T; Sheikh, SE; Sykes, DB; Ferrara, SJ; Krober, M; Merz, C; Niehues, M; Schafer, M; Zimmermann, K; Nising, CF

> <Link to Ligand in BindingDB>
http://www.bindingdb.org/bind/chemsearch/marvin/MolStructure.jsp?monomerid=470430

> <Link to Ligand-Target Pair in BindingDB>
http://www.bindingdb.org/jsp/dbsearch/PrimarySearch_ki.jsp?energyterm=kJ/mole&tag=r21&monomerid=470430&enzyme=Dihydroorotate+dehydrogenase&column=ki&startPg=0&Increment=50&submit=Search

> <PubChem CID>
134470167

> <PubChem SID>
441609607

$$$$

  Mrv2115 07222212352D          

 26 28  0  0  0  0            999 V2000
   -0.7145   -0.4125    0.0000 C   0  0  0  0  0  0  0  0  0  0  0  0
   -0.7145   -1.2375    0.0000 C   0  0  0  0  0  0  0  0  0  0  0  0
   -1.4289   -1.6500    0.0000 C   0  0  0  0  0  0  0  0  0  0  0  0
   -2.1434   -1.2375    0.0000 C   0  0  0  0  0  0  0  0  0  0  0  0
   -2.8579   -1.6500    0.0000 C   0  0  0  0  0  0  0  0  0  0  0  0
   -3.5724   -1.2375    0.0000 C   0  0  0  0  0  0  0  0  0  0  0  0
   -3.5724   -0.4125    0.0000 C   0  0  0  0  0  0  0  0  0  0  0  0
   -2.8579   -0.0000    0.0000 C   0  0  0  0  0  0  0  0  0  0  0  0
   -2.1434   -0.4125    0.0000 C   0  0  0  0  0  0  0  0  0  0  0  0
   -1.4289    0.0000    0.0000 Cl  0  0  0  0  0  0  0  0  0  0  0  0
   -1.4289   -2.4750    0.0000 C   0  0  0  0  0  0  0  0  0  0  0  0
   -0.7145   -2.8875    0.0000 C   0  0  0  0  0  0  0  0  0  0  0  0
   -0.7145   -3.7125    0.0000 F   0  0  0  0  0  0  0  0  0  0  0  0
    0.0000   -2.4750    0.0000 C   0  0  0  0  0  0  0  0  0  0  0  0
    0.7145   -2.8875    0.0000 N   0  0  0  0  0  0  0  0  0  0  0  0
    1.4289   -2.4750    0.0000 C   0  0  0  0  0  0  0  0  0  0  0  0
    1.4289   -1.6500    0.0000 N   0  0  0  0  0  0  0  0  0  0  0  0
    2.1434   -1.2375    0.0000 C   0  0  0  0  0  0  0  0  0  0  0  0
    2.8579   -1.6500    0.0000 C   0  0  0  0  0  0  0  0  0  0  0  0
    2.8579   -2.4750    0.0000 C   0  0  0  0  0  0  0  0  0  0  0  0
    2.1434   -2.8875    0.0000 C   0  0  0  0  0  0  0  0  0  0  0  0
    2.1434   -3.7125    0.0000 C   0  0  0  0  0  0  0  0  0  0  0  0
    1.4289   -4.1250    0.0000 O   0  0  0  0  0  0  0  0  0  0  0  0
    2.8579   -4.1250    0.0000 O   0  0  0  0  0  0  0  0  0  0  0  0
    0.0000   -1.6500    0.0000 C   0  0  0  0  0  0  0  0  0  0  0  0
    0.7145   -1.2375    0.0000 F   0  0  0  0  0  0  0  0  0  0  0  0
  1  2  1  0  0  0  0
  2  3  4  0  0  0  0
  3  4  1  0  0  0  0
  4  5  4  0  0  0  0
  5  6  4  0  0  0  0
  6  7  4  0  0  0  0
  7  8  4  0  0  0  0
  8  9  4  0  0  0  0
  4  9  4  0  0  0  0
  9 10  1  0  0  0  0
  3 11  4  0  0  0  0
 11 12  4  0  0  0  0
 12 13  1  0  0  0  0
 12 14  4  0  0  0  0
 14 15  1  0  0  0  0
 15 16  1  0  0  0  0
 16 17  4  0  0  0  0
 17 18  4  0  0  0  0
 18 19  4  0  0  0  0
 19 20  4  0  0  0  0
 20 21  4  0  0  0  0
 16 21  4  0  0  0  0
 21 22  1  0  0  0  0
 22 23  2  0  0  0  0
 22 24  1  0  0  0  0
 14 25  4  0  0  0  0
  2 25  4  0  0  0  0
 25 26  1  0  0  0  0
M  END
> <IC50(uM)>
0.004

> <Outcome>
1.0

> <BindingDB ID>
246922; 51186847

> <BindingDB MonomerID>
119829

> <BindingDB Ligand Name>
US8691852, 57

> <Curation/DataSource>
US Patent; ChEMBL

> <Article DOI>
?; 10.1007/s00044-011-9837-4

> <PMID>
?

> <Patent Number>
US8691852; ?

> <Authors>
Castro Palomino Laria, JC; Erra Sola, M; Lozoya Toribio, ME; Navarro Romero, E; n/a

> <Link to Ligand in BindingDB>
http://www.bindingdb.org/bind/chemsearch/marvin/MolStructure.jsp?monomerid=119829

> <Link to Ligand-Target Pair in BindingDB>
http://www.bindingdb.org/jsp/dbsearch/PrimarySearch_ki.jsp?energyterm=kJ/mole&tag=r21&monomerid=119829&enzyme=Dihydroorotate+dehydrogenase&column=ki&startPg=0&Increment=50&submit=Search

> <PubChem CID>
24989028

> <PubChem SID>
220230623

$$$$

  Mrv2115 07222212352D          

 33 36  0  0  0  0            999 V2000
    0.0000   -1.6500    0.0000 C   0  0  0  0  0  0  0  0  0  0  0  0
    0.7145   -1.2375    0.0000 C   0  0  0  0  0  0  0  0  0  0  0  0
    0.7145   -0.4125    0.0000 C   0  0  0  0  0  0  0  0  0  0  0  0
    0.0000    0.0000    0.0000 C   0  0  0  0  0  0  0  0  0  0  0  0
   -0.7145   -0.4125    0.0000 O   0  0  0  0  0  0  0  0  0  0  0  0
    0.0000    0.8250    0.0000 N   0  0  0  0  0  0  0  0  0  0  0  0
   -0.7145    1.2375    0.0000 C   0  0  0  0  0  0  0  0  0  0  0  0
   -1.4289    0.8250    0.0000 C   0  0  0  0  0  0  0  0  0  0  0  0
   -1.4289    0.0000    0.0000 F   0  0  0  0  0  0  0  0  0  0  0  0
   -2.1434    1.2375    0.0000 C   0  0  0  0  0  0  0  0  0  0  0  0
   -2.1434    2.0625    0.0000 C   0  0  0  0  0  0  0  0  0  0  0  0
   -2.8579    2.4750    0.0000 C   0  0  0  0  0  0  0  0  0  0  0  0
   -3.5724    2.0625    0.0000 C   0  0  0  0  0  0  0  0  0  0  0  0
   -4.2868    2.4750    0.0000 C   0  0  0  0  0  0  0  0  0  0  0  0
   -4.2868    3.3000    0.0000 C   0  0  0  0  0  0  0  0  0  0  0  0
   -3.5724    3.7125    0.0000 C   0  0  0  0  0  0  0  0  0  0  0  0
   -3.5724    4.5375    0.0000 F   0  0  0  0  0  0  0  0  0  0  0  0
   -2.8579    3.3000    0.0000 C   0  0  0  0  0  0  0  0  0  0  0  0
   -1.4289    2.4750    0.0000 C   0  0  0  0  0  0  0  0  0  0  0  0
   -0.7145    2.0625    0.0000 C   0  0  0  0  0  0  0  0  0  0  0  0
    0.0000    2.4750    0.0000 F   0  0  0  0  0  0  0  0  0  0  0  0
    1.4289    0.0000    0.0000 N   0  0  0  0  0  0  0  0  0  0  0  0
    2.1434   -0.4125    0.0000 C   0  0  0  0  0  0  0  0  0  0  0  0
    2.8579    0.0000    0.0000 C   0  0  0  0  0  0  0  0  0  0  0  0
    3.5724   -0.4125    0.0000 C   0  0  0  0  0  0  0  0  0  0  0  0
    3.5724   -1.2375    0.0000 C   0  0  0  0  0  0  0  0  0  0  0  0
    4.2868   -1.6500    0.0000 F   0  0  0  0  0  0  0  0  0  0  0  0
    2.8579   -1.6500    0.0000 C   0  0  0  0  0  0  0  0  0  0  0  0
    2.1434   -1.2375    0.0000 C   0  0  0  0  0  0  0  0  0  0  0  0
    1.4289   -1.6500    0.0000 C   0  0  0  0  0  0  0  0  0  0  0  0
    1.4289   -2.4750    0.0000 C   0  0  0  0  0  0  0  0  0  0  0  0
    0.7145   -2.8875    0.0000 O   0  0  0  0  0  0  0  0  0  0  0  0
    2.1434   -2.8875    0.0000 O   0  0  0  0  0  0  0  0  0  0  0  0
  1  2  1  0  0  0  0
  2  3  4  0  0  0  0
  3  4  1  0  0  0  0
  4  5  2  0  0  0  0
  4  6  1  0  0  0  0
  6  7  1  0  0  0  0
  7  8  4  0  0  0  0
  8  9  1  0  0  0  0
  8 10  4  0  0  0  0
 10 11  4  0  0  0  0
 11 12  1  0  0  0  0
 12 13  4  0  0  0  0
 13 14  4  0  0  0  0
 14 15  4  0  0  0  0
 15 16  4  0  0  0  0
 16 17  1  0  0  0  0
 16 18  4  0  0  0  0
 12 18  4  0  0  0  0
 11 19  4  0  0  0  0
 19 20  4  0  0  0  0
  7 20  4  0  0  0  0
 20 21  1  0  0  0  0
  3 22  4  0  0  0  0
 22 23  4  0  0  0  0
 23 24  4  0  0  0  0
 24 25  4  0  0  0  0
 25 26  4  0  0  0  0
 26 27  1  0  0  0  0
 26 28  4  0  0  0  0
 28 29  4  0  0  0  0
 23 29  4  0  0  0  0
 29 30  4  0  0  0  0
  2 30  4  0  0  0  0
 30 31  1  0  0  0  0
 31 32  2  0  0  0  0
 31 33  1  0  0  0  0
M  END
> <IC50(uM)>
4.58

> <Outcome>
0.0

> <BindingDB ID>
50107542

> <BindingDB MonomerID>
50020692

> <BindingDB Ligand Name>
CHEMBL3290842

> <Curation/DataSource>
ChEMBL

> <Article DOI>
10.1016/j.ejmech.2014.05.064

> <PMID>
24929289

> <Patent Number>
?

> <Authors>
Vyas, VK; Variya, B; Ghate, MD

> <Link to Ligand in BindingDB>
http://www.bindingdb.org/bind/chemsearch/marvin/MolStructure.jsp?monomerid=50020692

> <Link to Ligand-Target Pair in BindingDB>
http://www.bindingdb.org/jsp/dbsearch/PrimarySearch_ki.jsp?energyterm=kJ/mole&tag=r21&monomerid=50020692&enzyme=Dihydroorotate+dehydrogenase&column=ki&startPg=0&Increment=50&submit=Search

> <PubChem CID>
90644867

> <PubChem SID>
103931451

$$$$

  Mrv2115 07222212352D          

 20 21  0  0  0  0            999 V2000
    0.0000   -1.6500    0.0000 C   0  0  0  0  0  0  0  0  0  0  0  0
    0.0000   -2.4750    0.0000 C   0  0  0  0  0  0  0  0  0  0  0  0
    0.7145   -2.8875    0.0000 C   0  0  0  0  0  0  0  0  0  0  0  0
    1.4289   -2.4750    0.0000 C   0  0  0  0  0  0  0  0  0  0  0  0
    1.4289   -1.6500    0.0000 O   0  0  0  0  0  0  0  0  0  0  0  0
    2.1434   -2.8875    0.0000 N   0  0  0  0  0  0  0  0  0  0  0  0
    2.8579   -2.4750    0.0000 C   0  0  0  0  0  0  0  0  0  0  0  0
    2.8579   -1.6500    0.0000 C   0  0  0  0  0  0  0  0  0  0  0  0
    3.5724   -1.2375    0.0000 C   0  0  0  0  0  0  0  0  0  0  0  0
    4.2868   -1.6500    0.0000 C   0  0  0  0  0  0  0  0  0  0  0  0
    4.2868   -2.4750    0.0000 C   0  0  0  0  0  0  0  0  0  0  0  0
    5.0013   -2.8875    0.0000 Br  0  0  0  0  0  0  0  0  0  0  0  0
    3.5724   -2.8875    0.0000 C   0  0  0  0  0  0  0  0  0  0  0  0
    0.7145   -3.7125    0.0000 C   0  0  0  0  0  0  0  0  0  0  0  0
    0.0000   -4.1250    0.0000 C   0  0  0  0  0  0  0  0  0  0  0  0
   -0.7145   -3.7125    0.0000 C   0  0  0  0  0  0  0  0  0  0  0  0
   -0.7145   -2.8875    0.0000 C   0  0  0  0  0  0  0  0  0  0  0  0
   -1.4289   -2.4750    0.0000 N   0  3  0  0  0  0  0  0  0  0  0  0
   -2.1434   -2.8875    0.0000 O   0  0  0  0  0  0  0  0  0  0  0  0
   -1.4289   -1.6500    0.0000 O   0  5  0  0  0  0  0  0  0  0  0  0
  1  2  1  0  0  0  0
  2  3  4  0  0  0  0
  3  4  1  0  0  0  0
  4  5  2  0  0  0  0
  4  6  1  0  0  0  0
  6  7  1  0  0  0  0
  7  8  4  0  0  0  0
  8  9  4  0  0  0  0
  9 10  4  0  0  0  0
 10 11  4  0  0  0  0
 11 12  1  0  0  0  0
 11 13  4  0  0  0  0
  7 13  4  0  0  0  0
  3 14  4  0  0  0  0
 14 15  4  0  0  0  0
 15 16  4  0  0  0  0
 16 17  4  0  0  0  0
  2 17  4  0  0  0  0
 17 18  1  0  0  0  0
 18 19  2  0  0  0  0
 18 20  1  0  0  0  0
M  CHG  2  18   1  20  -1
M  END
> <IC50(uM)>
105.0

> <Outcome>
0.0

> <BindingDB ID>
28097

> <BindingDB MonomerID>
15349

> <BindingDB Ligand Name>
Asinex compound no. 4::N-(3-bromophenyl)-2-methyl-3-nitrobenzamide

> <Curation/DataSource>
Curated from the literature by BindingDB

> <Article DOI>
10.1074/jbc.M501100200

> <PMID>
15795226

> <Patent Number>
?

> <Authors>
Baldwin, J; Michnoff, CH; Malmquist, NA; White, J; Roth, MG; Rathod, PK; Phillips, MA

> <Link to Ligand in BindingDB>
http://www.bindingdb.org/bind/chemsearch/marvin/MolStructure.jsp?monomerid=15349

> <Link to Ligand-Target Pair in BindingDB>
http://www.bindingdb.org/jsp/dbsearch/PrimarySearch_ki.jsp?energyterm=kJ/mole&tag=r21&monomerid=15349&enzyme=Dihydroorotate+Dehydrogenase+%28DHODH%29&column=ki&startPg=0&Increment=50&submit=Search

> <PubChem CID>
799056

> <PubChem SID>
46515650

$$$$

  Mrv2115 07222212352D          

 26 28  0  0  0  0            999 V2000
    0.0000   -2.4750    0.0000 O   0  0  0  0  0  0  0  0  0  0  0  0
    0.0000   -1.6500    0.0000 C   0  0  0  0  0  0  0  0  0  0  0  0
   -0.7145   -1.2375    0.0000 O   0  0  0  0  0  0  0  0  0  0  0  0
    0.7145   -1.2375    0.0000 C   0  0  0  0  0  0  0  0  0  0  0  0
    0.7145   -0.4125    0.0000 C   0  0  0  0  0  0  0  0  0  0  0  0
    1.4289    0.0000    0.0000 C   0  0  0  0  0  0  0  0  0  0  0  0
    2.1434   -0.4125    0.0000 C   0  0  0  0  0  0  0  0  0  0  0  0
    2.8579    0.0000    0.0000 C   0  0  0  0  0  0  0  0  0  0  0  0
    3.5724   -0.4125    0.0000 C   0  0  0  0  0  0  0  0  0  0  0  0
    4.2868   -0.0000    0.0000 C   0  0  0  0  0  0  0  0  0  0  0  0
    4.2868    0.8250    0.0000 C   0  0  0  0  0  0  0  0  0  0  0  0
    5.0013    1.2375    0.0000 C   0  0  0  0  0  0  0  0  0  0  0  0
    5.0013    2.0625    0.0000 C   0  0  0  0  0  0  0  0  0  0  0  0
    4.2868    2.4750    0.0000 C   0  0  0  0  0  0  0  0  0  0  0  0
    4.2868    3.3000    0.0000 O   0  0  0  0  0  0  0  0  0  0  0  0
    3.5724    2.0625    0.0000 O   0  0  0  0  0  0  0  0  0  0  0  0
    5.7158    2.4750    0.0000 N   0  0  0  0  0  0  0  0  0  0  0  0
    6.4302    2.0625    0.0000 C   0  0  0  0  0  0  0  0  0  0  0  0
    7.1447    2.4750    0.0000 O   0  0  0  0  0  0  0  0  0  0  0  0
    6.4302    1.2375    0.0000 N   0  0  0  0  0  0  0  0  0  0  0  0
    5.7158    0.8250    0.0000 C   0  0  0  0  0  0  0  0  0  0  0  0
    5.7158   -0.0000    0.0000 O   0  0  0  0  0  0  0  0  0  0  0  0
    3.5724   -1.2375    0.0000 C   0  0  0  0  0  0  0  0  0  0  0  0
    2.8579   -1.6500    0.0000 C   0  0  0  0  0  0  0  0  0  0  0  0
    2.1434   -1.2375    0.0000 C   0  0  0  0  0  0  0  0  0  0  0  0
    1.4289   -1.6500    0.0000 C   0  0  0  0  0  0  0  0  0  0  0  0
  1  2  2  0  0  0  0
  2  3  1  0  0  0  0
  2  4  1  0  0  0  0
  4  5  4  0  0  0  0
  5  6  4  0  0  0  0
  6  7  4  0  0  0  0
  7  8  4  0  0  0  0
  8  9  4  0  0  0  0
  9 10  1  0  0  0  0
 10 11  1  0  0  0  0
 11 12  1  0  0  0  0
 12 13  4  0  0  0  0
 13 14  1  0  0  0  0
 14 15  2  0  0  0  0
 14 16  1  0  0  0  0
 13 17  4  0  0  0  0
 17 18  4  0  0  0  0
 18 19  2  0  0  0  0
 18 20  4  0  0  0  0
 20 21  4  0  0  0  0
 12 21  4  0  0  0  0
 21 22  2  0  0  0  0
  9 23  4  0  0  0  0
 23 24  4  0  0  0  0
 24 25  4  0  0  0  0
  7 25  4  0  0  0  0
 25 26  4  0  0  0  0
  4 26  4  0  0  0  0
M  STY  2   1 DAT   2 DAT
M  SAL   1  1  17
M  SDT   1 MRV_IMPLICIT_H                                        
M  SDD   1     0.6482   -0.4125    DR    ALL  0       0  
M  SED   1 IMPL_H1
M  SAL   2  1  20
M  SDT   2 MRV_IMPLICIT_H                                        
M  SDD   2     0.5304   -0.4125    DR    ALL  0       0  
M  SED   2 IMPL_H1
M  END
> <IC50(uM)>
1.785

> <Outcome>
0.0

> <BindingDB ID>
50555418

> <BindingDB MonomerID>
50211706

> <BindingDB Ligand Name>
CHEMBL3890631

> <Curation/DataSource>
ChEMBL

> <Article DOI>
10.1016/j.bmc.2017.01.009

> <PMID>
28118956

> <Patent Number>
?

> <Authors>
Inaoka, DK; Iida, M; Hashimoto, S; Tabuchi, T; Kuranaga, T; Balogun, EO; Honma, T; Tanaka, A; Harada, S; Nara, T; Kita, K; Inoue, M

> <Link to Ligand in BindingDB>
http://www.bindingdb.org/bind/chemsearch/marvin/MolStructure.jsp?monomerid=50211706

> <Link to Ligand-Target Pair in BindingDB>
http://www.bindingdb.org/jsp/dbsearch/PrimarySearch_ki.jsp?energyterm=kJ/mole&tag=r21&monomerid=50211706&enzyme=Dihydroorotate+dehydrogenase&column=ki&startPg=0&Increment=50&submit=Search

> <PubChem CID>
134137084

> <PubChem SID>
375983049

$$$$

  Mrv2115 07222212352D          

 31 34  0  0  0  0            999 V2000
    0.7145   -2.8875    0.0000 C   0  0  0  0  0  0  0  0  0  0  0  0
    0.0000   -2.4750    0.0000 C   0  0  0  0  0  0  0  0  0  0  0  0
   -0.7145   -2.8875    0.0000 C   0  0  0  0  0  0  0  0  0  0  0  0
   -1.4289   -2.4750    0.0000 C   0  0  0  0  0  0  0  0  0  0  0  0
   -1.4289   -1.6500    0.0000 C   0  0  0  0  0  0  0  0  0  0  0  0
   -0.7145   -1.2375    0.0000 C   0  0  0  0  0  0  0  0  0  0  0  0
    0.0000   -1.6500    0.0000 C   0  0  0  0  0  0  0  0  0  0  0  0
    0.7145   -1.2375    0.0000 N   0  0  0  0  0  0  0  0  0  0  0  0
    0.7145   -0.4125    0.0000 C   0  0  0  0  0  0  0  0  0  0  0  0
    1.4289    0.0000    0.0000 C   0  0  0  0  0  0  0  0  0  0  0  0
    1.4289    0.8250    0.0000 C   0  0  0  0  0  0  0  0  0  0  0  0
    2.1434    1.2375    0.0000 C   0  0  0  0  0  0  0  0  0  0  0  0
    0.7145    1.2375    0.0000 C   0  0  0  0  0  0  0  0  0  0  0  0
    2.1434   -0.4125    0.0000 C   0  0  0  0  0  0  0  0  0  0  0  0
    2.8579    0.0000    0.0000 C   0  0  0  0  0  0  0  0  0  0  0  0
    3.5724   -0.4125    0.0000 C   0  0  0  0  0  0  0  0  0  0  0  0
    4.2868   -0.0000    0.0000 C   0  0  0  0  0  0  0  0  0  0  0  0
    4.3731    0.8205    0.0000 C   0  0  0  0  0  0  0  0  0  0  0  0
    5.1800    0.9920    0.0000 N   0  0  0  0  0  0  0  0  0  0  0  0
    5.5156    1.7457    0.0000 C   0  0  0  0  0  0  0  0  0  0  0  0
    5.5925    0.2775    0.0000 C   0  0  0  0  0  0  0  0  0  0  0  0
    6.4130    0.1913    0.0000 C   0  0  0  0  0  0  0  0  0  0  0  0
    6.8979    0.8587    0.0000 C   0  0  0  0  0  0  0  0  0  0  0  0
    6.7486   -0.5624    0.0000 O   0  0  0  0  0  0  0  0  0  0  0  0
    5.0405   -0.3356    0.0000 N   0  0  0  0  0  0  0  0  0  0  0  0
    3.5724   -1.2375    0.0000 C   0  0  0  0  0  0  0  0  0  0  0  0
    4.2868   -1.6500    0.0000 F   0  0  0  0  0  0  0  0  0  0  0  0
    2.8579   -1.6500    0.0000 C   0  0  0  0  0  0  0  0  0  0  0  0
    2.1434   -1.2375    0.0000 C   0  0  0  0  0  0  0  0  0  0  0  0
    1.4289   -1.6500    0.0000 C   0  0  0  0  0  0  0  0  0  0  0  0
    1.4289   -2.4750    0.0000 O   0  0  0  0  0  0  0  0  0  0  0  0
  1  2  1  0  0  0  0
  2  3  4  0  0  0  0
  3  4  4  0  0  0  0
  4  5  4  0  0  0  0
  5  6  4  0  0  0  0
  6  7  4  0  0  0  0
  2  7  4  0  0  0  0
  7  8  1  0  0  0  0
  8  9  4  0  0  0  0
  9 10  4  0  0  0  0
 10 11  1  0  0  0  0
 11 12  1  0  0  0  0
 11 13  1  0  0  0  0
 10 14  4  0  0  0  0
 14 15  4  0  0  0  0
 15 16  4  0  0  0  0
 16 17  1  0  0  0  0
 17 18  4  0  0  0  0
 18 19  4  0  0  0  0
 19 20  1  0  0  0  0
 19 21  4  0  0  0  0
 21 22  1  0  0  0  0
 22 23  1  0  0  0  0
 22 24  1  0  0  0  0
 21 25  4  0  0  0  0
 17 25  4  0  0  0  0
 16 26  4  0  0  0  0
 26 27  1  0  0  0  0
 26 28  4  0  0  0  0
 28 29  4  0  0  0  0
 14 29  4  0  0  0  0
 29 30  4  0  0  0  0
  8 30  4  0  0  0  0
 30 31  2  0  0  0  0
M  END
> <IC50(uM)>
6.199999999999999E-4

> <Outcome>
1.0

> <BindingDB ID>
1121373; 1121372

> <BindingDB MonomerID>
530439; 530438

> <BindingDB Ligand Name>
(R*)-7-Fluoro-6-(2-(1-hydroxyethyl)-1-methyl-1H-imidazol-4-yl)-4-isopropyl-2-(o-tolyl)isoquinolin-1(2H)-one.::WO2022070068, Example 11; (S*)-7-Fluoro-6-(2-(1-hydroxyethyl)-1-methyl-1H-imidazol-4-yl)-4-isopropyl-2-(o-tolyl)isoquinolin-1(2H)-one.::WO2022070068, Example 10

> <Curation/DataSource>
Curated from the literature by BindingDB

> <Article DOI>
?

> <PMID>
WO2022070068

> <Patent Number>
?

> <Authors>
Lindsey, D; Scott, K; Zhuming, Z

> <Link to Ligand in BindingDB>
http://www.bindingdb.org/bind/chemsearch/marvin/MolStructure.jsp?monomerid=530439; http://www.bindingdb.org/bind/chemsearch/marvin/MolStructure.jsp?monomerid=530438

> <Link to Ligand-Target Pair in BindingDB>
http://www.bindingdb.org/jsp/dbsearch/PrimarySearch_ki.jsp?energyterm=kJ/mole&tag=r21&monomerid=530439&enzyme=Dihydroorotate+dehydrogenase&column=ki&startPg=0&Increment=50&submit=Search; http://www.bindingdb.org/jsp/dbsearch/PrimarySearch_ki.jsp?energyterm=kJ/mole&tag=r21&monomerid=530438&enzyme=Dihydroorotate+dehydrogenase&column=ki&startPg=0&Increment=50&submit=Search

> <PubChem CID>
?

> <PubChem SID>
?

$$$$

  Mrv2115 07222212352D          

 26 27  0  0  0  0            999 V2000
    1.4289   -6.6000    0.0000 C   0  0  0  0  0  0  0  0  0  0  0  0
    2.1434   -6.1875    0.0000 C   0  0  0  0  0  0  0  0  0  0  0  0
    2.8579   -6.6000    0.0000 C   0  0  0  0  0  0  0  0  0  0  0  0
    2.8579   -7.4250    0.0000 O   0  0  0  0  0  0  0  0  0  0  0  0
    3.5724   -6.1875    0.0000 C   0  0  0  0  0  0  0  0  0  0  0  0
    3.5724   -5.3625    0.0000 C   0  0  0  0  0  0  0  0  0  0  0  0
    3.5724   -4.5375    0.0000 N   0  0  0  0  0  0  0  0  0  0  0  0
    4.2868   -6.6000    0.0000 C   0  0  0  0  0  0  0  0  0  0  0  0
    4.2868   -7.4250    0.0000 O   0  0  0  0  0  0  0  0  0  0  0  0
    5.0013   -6.1875    0.0000 N   0  0  0  0  0  0  0  0  0  0  0  0
    5.7158   -6.6000    0.0000 C   0  0  0  0  0  0  0  0  0  0  0  0
    6.4302   -6.1875    0.0000 C   0  0  0  0  0  0  0  0  0  0  0  0
    7.1447   -6.6000    0.0000 C   0  0  0  0  0  0  0  0  0  0  0  0
    7.1447   -7.4250    0.0000 C   0  0  0  0  0  0  0  0  0  0  0  0
    7.8592   -7.8375    0.0000 C   0  0  0  0  0  0  0  0  0  0  0  0
    8.5737   -7.4250    0.0000 C   0  0  0  0  0  0  0  0  0  0  0  0
    9.2881   -7.8375    0.0000 C   0  0  0  0  0  0  0  0  0  0  0  0
    9.2881   -8.6625    0.0000 C   0  0  0  0  0  0  0  0  0  0  0  0
    8.5737   -9.0750    0.0000 N   0  0  0  0  0  0  0  0  0  0  0  0
    7.8592   -8.6625    0.0000 C   0  0  0  0  0  0  0  0  0  0  0  0
    6.4302   -7.8375    0.0000 C   0  0  0  0  0  0  0  0  0  0  0  0
    6.4302   -8.6625    0.0000 C   0  0  0  0  0  0  0  0  0  0  0  0
    5.7158   -9.0750    0.0000 O   0  0  0  0  0  0  0  0  0  0  0  0
    7.1447   -9.0750    0.0000 O   0  0  0  0  0  0  0  0  0  0  0  0
    7.1447   -9.9000    0.0000 C   0  0  0  0  0  0  0  0  0  0  0  0
    5.7158   -7.4250    0.0000 C   0  0  0  0  0  0  0  0  0  0  0  0
  1  2  1  0  0  0  0
  2  3  1  0  0  0  0
  3  4  2  0  0  0  0
  3  5  1  0  0  0  0
  5  6  1  0  0  0  0
  6  7  3  0  0  0  0
  5  8  1  0  0  0  0
  8  9  2  0  0  0  0
  8 10  1  0  0  0  0
 10 11  1  0  0  0  0
 11 12  4  0  0  0  0
 12 13  4  0  0  0  0
 13 14  4  0  0  0  0
 14 15  1  0  0  0  0
 15 16  4  0  0  0  0
 16 17  4  0  0  0  0
 17 18  4  0  0  0  0
 18 19  4  0  0  0  0
 19 20  4  0  0  0  0
 15 20  4  0  0  0  0
 14 21  4  0  0  0  0
 21 22  1  0  0  0  0
 22 23  2  0  0  0  0
 22 24  1  0  0  0  0
 24 25  1  0  0  0  0
 21 26  4  0  0  0  0
 11 26  4  0  0  0  0
M  END
> <IC50(uM)>
0.04

> <Outcome>
1.0

> <BindingDB ID>
50707377

> <BindingDB MonomerID>
50359698

> <BindingDB Ligand Name>
CHEMBL1929442

> <Curation/DataSource>
ChEMBL

> <Article DOI>
10.1016/j.bmcl.2011.10.052

> <PMID>
22078215

> <Patent Number>
?

> <Authors>
Erra, M; Moreno, I; Sanahuja, J; Andres, M; Reinoso, RF; Lozoya, E; Pizcueta, P; Godessart, N; Castro-Palomino, JC

> <Link to Ligand in BindingDB>
http://www.bindingdb.org/bind/chemsearch/marvin/MolStructure.jsp?monomerid=50359698

> <Link to Ligand-Target Pair in BindingDB>
http://www.bindingdb.org/jsp/dbsearch/PrimarySearch_ki.jsp?energyterm=kJ/mole&tag=r21&monomerid=50359698&enzyme=Dihydroorotate+dehydrogenase&column=ki&startPg=0&Increment=50&submit=Search

> <PubChem CID>
91930446

> <PubChem SID>
136963722

$$$$

  Mrv2115 07222212352D          

 21 24  0  0  0  0            999 V2000
    4.0668    2.3479    0.0000 C   0  0  0  0  0  0  0  0  0  0  0  0
    3.3523    1.9354    0.0000 C   0  0  0  0  0  0  0  0  0  0  0  0
    3.3523    1.1104    0.0000 C   0  0  0  0  0  0  0  0  0  0  0  0
    2.6378    0.6979    0.0000 C   0  0  0  0  0  0  0  0  0  0  0  0
    2.6378   -0.1271    0.0000 N   0  0  0  0  0  0  0  0  0  0  0  0
    3.3523   -0.5396    0.0000 C   0  0  0  0  0  0  0  0  0  0  0  0
    4.0668   -0.1271    0.0000 C   0  0  0  0  0  0  0  0  0  0  0  0
    4.7812   -0.5396    0.0000 C   0  0  0  0  0  0  0  0  0  0  0  0
    4.7812   -1.3646    0.0000 C   0  0  0  0  0  0  0  0  0  0  0  0
    4.0668   -1.7771    0.0000 C   0  0  0  0  0  0  0  0  0  0  0  0
    4.0668   -2.6021    0.0000 Cl  0  0  0  0  0  0  0  0  0  0  0  0
    3.3523   -1.3646    0.0000 C   0  0  0  0  0  0  0  0  0  0  0  0
    1.9233    1.1104    0.0000 N   0  0  0  0  0  0  0  0  0  0  0  0
    1.1387    0.8555    0.0000 N   0  0  0  0  0  0  0  0  0  0  0  0
    0.6538    1.5229    0.0000 C   0  0  0  0  0  0  0  0  0  0  0  0
   -0.1712    1.5229    0.0000 C   0  0  0  0  0  0  0  0  0  0  0  0
   -0.8857    1.1104    0.0000 C   0  0  0  0  0  0  0  0  0  0  0  0
   -0.8857    1.9354    0.0000 C   0  0  0  0  0  0  0  0  0  0  0  0
    1.1387    2.1904    0.0000 N   0  0  0  0  0  0  0  0  0  0  0  0
    1.9233    1.9354    0.0000 C   0  0  0  0  0  0  0  0  0  0  0  0
    2.6378    2.3479    0.0000 N   0  0  0  0  0  0  0  0  0  0  0  0
  1  2  1  0  0  0  0
  2  3  4  0  0  0  0
  3  4  4  0  0  0  0
  4  5  1  0  0  0  0
  5  6  1  0  0  0  0
  6  7  4  0  0  0  0
  7  8  4  0  0  0  0
  8  9  4  0  0  0  0
  9 10  4  0  0  0  0
 10 11  1  0  0  0  0
 10 12  4  0  0  0  0
  6 12  4  0  0  0  0
  4 13  4  0  0  0  0
 13 14  4  0  0  0  0
 14 15  4  0  0  0  0
 15 16  1  0  0  0  0
 16 17  1  0  0  0  0
 17 18  1  0  0  0  0
 16 18  1  0  0  0  0
 15 19  4  0  0  0  0
 19 20  4  0  0  0  0
 13 20  4  0  0  0  0
 20 21  4  0  0  0  0
  2 21  4  0  0  0  0
M  END
> <IC50(uM)>
100.0

> <Outcome>
0.0

> <BindingDB ID>
50720165

> <BindingDB MonomerID>
50365235

> <BindingDB Ligand Name>
CHEMBL1956277

> <Curation/DataSource>
ChEMBL

> <Article DOI>
10.1021/jm200592f

> <PMID>
21696174

> <Patent Number>
?

> <Authors>
Coteron, JM; Marco, M; Esquivias, J; Deng, X; White, KL; White, J; Koltun, M; El Mazouni, F; Kokkonda, S; Katneni, K; Bhamidipati, R; Shackleford, DM; Angulo-Barturen, I; Ferrer, SB; Jimenez-Diaz, MB; Gamo, FJ; Goldsmith, EJ; Charman, WN; Bathurst, I; Floyd, D; Matthews, D; Burrows, JN; Rathod, PK; Charman, SA; Phillips, MA

> <Link to Ligand in BindingDB>
http://www.bindingdb.org/bind/chemsearch/marvin/MolStructure.jsp?monomerid=50365235

> <Link to Ligand-Target Pair in BindingDB>
http://www.bindingdb.org/jsp/dbsearch/PrimarySearch_ki.jsp?energyterm=kJ/mole&tag=r21&monomerid=50365235&enzyme=Dihydroorotate+dehydrogenase&column=ki&startPg=0&Increment=50&submit=Search

> <PubChem CID>
53392620

> <PubChem SID>
136969297

$$$$

  Mrv2115 07222212352D          

 26 29  0  0  0  0            999 V2000
    6.8513   -2.4750    0.0000 C   0  0  0  0  0  0  0  0  0  0  0  0
    6.1368   -2.8875    0.0000 C   0  0  0  0  0  0  0  0  0  0  0  0
    6.1368   -3.7125    0.0000 C   0  0  0  0  0  0  0  0  0  0  0  0
    5.4223   -4.1250    0.0000 C   0  0  0  0  0  0  0  0  0  0  0  0
    5.4223   -4.9500    0.0000 N   0  0  0  0  0  0  0  0  0  0  0  0
    6.1368   -5.3625    0.0000 C   0  0  0  0  0  0  0  0  0  0  0  0
    6.8513   -4.9500    0.0000 C   0  0  0  0  0  0  0  0  0  0  0  0
    7.5658   -5.3625    0.0000 C   0  0  0  0  0  0  0  0  0  0  0  0
    7.5658   -6.1875    0.0000 C   0  0  0  0  0  0  0  0  0  0  0  0
    8.2802   -6.6000    0.0000 C   0  0  0  0  0  0  0  0  0  0  0  0
    8.2802   -7.4250    0.0000 C   0  0  0  0  0  0  0  0  0  0  0  0
    7.5658   -7.8375    0.0000 C   0  0  0  0  0  0  0  0  0  0  0  0
    7.5658   -8.6625    0.0000 Cl  0  0  0  0  0  0  0  0  0  0  0  0
    6.8513   -7.4250    0.0000 C   0  0  0  0  0  0  0  0  0  0  0  0
    6.8513   -6.6000    0.0000 C   0  0  0  0  0  0  0  0  0  0  0  0
    6.1368   -6.1875    0.0000 C   0  0  0  0  0  0  0  0  0  0  0  0
    4.7079   -3.7125    0.0000 N   0  0  0  0  0  0  0  0  0  0  0  0
    3.9232   -3.9674    0.0000 N   0  0  0  0  0  0  0  0  0  0  0  0
    3.4383   -3.3000    0.0000 C   0  0  0  0  0  0  0  0  0  0  0  0
    2.6133   -3.3000    0.0000 C   0  0  0  0  0  0  0  0  0  0  0  0
    1.7883   -3.3000    0.0000 F   0  0  0  0  0  0  0  0  0  0  0  0
    2.6133   -2.4750    0.0000 F   0  0  0  0  0  0  0  0  0  0  0  0
    2.6133   -4.1250    0.0000 F   0  0  0  0  0  0  0  0  0  0  0  0
    3.9232   -2.6326    0.0000 N   0  0  0  0  0  0  0  0  0  0  0  0
    4.7079   -2.8875    0.0000 C   0  0  0  0  0  0  0  0  0  0  0  0
    5.4223   -2.4750    0.0000 N   0  0  0  0  0  0  0  0  0  0  0  0
  1  2  1  0  0  0  0
  2  3  4  0  0  0  0
  3  4  4  0  0  0  0
  4  5  1  0  0  0  0
  5  6  1  0  0  0  0
  6  7  1  0  0  0  0
  7  8  1  0  0  0  0
  8  9  1  0  0  0  0
  9 10  4  0  0  0  0
 10 11  4  0  0  0  0
 11 12  4  0  0  0  0
 12 13  1  0  0  0  0
 12 14  4  0  0  0  0
 14 15  4  0  0  0  0
  9 15  4  0  0  0  0
 15 16  1  0  0  0  0
  6 16  1  0  0  0  0
  4 17  4  0  0  0  0
 17 18  4  0  0  0  0
 18 19  4  0  0  0  0
 19 20  1  0  0  0  0
 20 21  1  0  0  0  0
 20 22  1  0  0  0  0
 20 23  1  0  0  0  0
 19 24  4  0  0  0  0
 24 25  4  0  0  0  0
 17 25  4  0  0  0  0
 25 26  4  0  0  0  0
  2 26  4  0  0  0  0
M  END
> <IC50(uM)>
50.0

> <Outcome>
0.0

> <BindingDB ID>
51373008

> <BindingDB MonomerID>
50555375

> <BindingDB Ligand Name>
CHEMBL4750037

> <Curation/DataSource>
ChEMBL

> <Article DOI>
?

> <PMID>
27127993

> <Patent Number>
?

> <Authors>
Kokkonda, S; Deng, X; White, KL; Coteron, JM; Marco, M; de Las Heras, L; White, J; El Mazouni, F; Tomchick, DR; Manjalanagara, K; Rudra, KR; Chen, G; Morizzi, J; Ryan, E; Kaminsky, W; Leroy, D; Mart??nez-Mart??nez, MS; Jimenez-Diaz, MB; Bazaga, SF; Angulo-Barturen, I; Waterson, D; Burrows, JN; Matthews, D; Charman, SA; Phillips, MA; Rathod, PK

> <Link to Ligand in BindingDB>
http://www.bindingdb.org/bind/chemsearch/marvin/MolStructure.jsp?monomerid=50555375

> <Link to Ligand-Target Pair in BindingDB>
http://www.bindingdb.org/jsp/dbsearch/PrimarySearch_ki.jsp?energyterm=kJ/mole&tag=r21&monomerid=50555375&enzyme=Dihydroorotate+dehydrogenase&column=ki&startPg=0&Increment=50&submit=Search

> <PubChem CID>
162651212

> <PubChem SID>
461694143

$$$$

  Mrv2115 07222212352D          

 21 23  0  0  0  0            999 V2000
    4.0668    2.3479    0.0000 C   0  0  0  0  0  0  0  0  0  0  0  0
    3.3523    1.9354    0.0000 C   0  0  0  0  0  0  0  0  0  0  0  0
    3.3523    1.1104    0.0000 C   0  0  0  0  0  0  0  0  0  0  0  0
    2.6378    0.6979    0.0000 C   0  0  0  0  0  0  0  0  0  0  0  0
    2.6378   -0.1271    0.0000 N   0  0  0  0  0  0  0  0  0  0  0  0
    1.9233   -0.5396    0.0000 C   0  0  0  0  0  0  0  0  0  0  0  0
    1.9233   -1.3646    0.0000 C   0  0  0  0  0  0  0  0  0  0  0  0
    1.2089   -1.7771    0.0000 C   0  0  0  0  0  0  0  0  0  0  0  0
    0.4944   -1.3646    0.0000 C   0  0  0  0  0  0  0  0  0  0  0  0
   -0.2201   -1.7771    0.0000 C   0  0  0  0  0  0  0  0  0  0  0  0
   -0.9345   -2.1896    0.0000 C   0  0  0  0  0  0  0  0  0  0  0  0
   -0.6326   -1.0626    0.0000 C   0  0  0  0  0  0  0  0  0  0  0  0
    0.1924   -2.4915    0.0000 C   0  0  0  0  0  0  0  0  0  0  0  0
    0.4944   -0.5396    0.0000 C   0  0  0  0  0  0  0  0  0  0  0  0
    1.2089   -0.1271    0.0000 C   0  0  0  0  0  0  0  0  0  0  0  0
    1.9233    1.1104    0.0000 N   0  0  0  0  0  0  0  0  0  0  0  0
    1.1387    0.8555    0.0000 N   0  0  0  0  0  0  0  0  0  0  0  0
    0.6538    1.5229    0.0000 C   0  0  0  0  0  0  0  0  0  0  0  0
    1.1387    2.1904    0.0000 N   0  0  0  0  0  0  0  0  0  0  0  0
    1.9233    1.9354    0.0000 C   0  0  0  0  0  0  0  0  0  0  0  0
    2.6378    2.3479    0.0000 N   0  0  0  0  0  0  0  0  0  0  0  0
  1  2  1  0  0  0  0
  2  3  4  0  0  0  0
  3  4  4  0  0  0  0
  4  5  1  0  0  0  0
  5  6  1  0  0  0  0
  6  7  4  0  0  0  0
  7  8  4  0  0  0  0
  8  9  4  0  0  0  0
  9 10  1  0  0  0  0
 10 11  1  0  0  0  0
 10 12  1  0  0  0  0
 10 13  1  0  0  0  0
  9 14  4  0  0  0  0
 14 15  4  0  0  0  0
  6 15  4  0  0  0  0
  4 16  4  0  0  0  0
 16 17  4  0  0  0  0
 17 18  4  0  0  0  0
 18 19  4  0  0  0  0
 19 20  4  0  0  0  0
 16 20  4  0  0  0  0
 20 21  4  0  0  0  0
  2 21  4  0  0  0  0
M  END
> <IC50(uM)>
100.0

> <Outcome>
0.0

> <BindingDB ID>
50643175

> <BindingDB MonomerID>
50345420

> <BindingDB Ligand Name>
CHEMBL1784561::N-(4-tert-Butylphenyl)-5-methyl-[1,2,4]triazolo[1,5-a]pyrimidin-7-amine

> <Curation/DataSource>
ChEMBL

> <Article DOI>
10.1021/jm200265b

> <PMID>
21517059

> <Patent Number>
?

> <Authors>
Gujjar, R; El Mazouni, F; White, KL; White, J; Creason, S; Shackleford, DM; Deng, X; Charman, WN; Bathurst, I; Burrows, J; Floyd, DM; Matthews, D; Buckner, FS; Charman, SA; Phillips, MA; Rathod, PK

> <Link to Ligand in BindingDB>
http://www.bindingdb.org/bind/chemsearch/marvin/MolStructure.jsp?monomerid=50345420

> <Link to Ligand-Target Pair in BindingDB>
http://www.bindingdb.org/jsp/dbsearch/PrimarySearch_ki.jsp?energyterm=kJ/mole&tag=r21&monomerid=50345420&enzyme=Dihydroorotate+dehydrogenase&column=ki&startPg=0&Increment=50&submit=Search

> <PubChem CID>
8850862

> <PubChem SID>
131348356

$$$$

  Mrv2115 07222212352D          

 19 21  0  0  0  0            999 V2000
    4.0668    2.3479    0.0000 C   0  0  0  0  0  0  0  0  0  0  0  0
    3.3523    1.9354    0.0000 C   0  0  0  0  0  0  0  0  0  0  0  0
    3.3523    1.1104    0.0000 C   0  0  0  0  0  0  0  0  0  0  0  0
    2.6378    0.6979    0.0000 C   0  0  0  0  0  0  0  0  0  0  0  0
    2.6378   -0.1271    0.0000 N   0  0  0  0  0  0  0  0  0  0  0  0
    1.9233   -0.5396    0.0000 C   0  0  0  0  0  0  0  0  0  0  0  0
    1.9233   -1.3646    0.0000 C   0  0  0  0  0  0  0  0  0  0  0  0
    1.2089   -1.7771    0.0000 C   0  0  0  0  0  0  0  0  0  0  0  0
    0.4944   -1.3646    0.0000 C   0  0  0  0  0  0  0  0  0  0  0  0
   -0.2201   -1.7771    0.0000 C   0  0  0  0  0  0  0  0  0  0  0  0
    0.4944   -0.5396    0.0000 C   0  0  0  0  0  0  0  0  0  0  0  0
   -0.2201   -0.1271    0.0000 C   0  0  0  0  0  0  0  0  0  0  0  0
    1.2089   -0.1271    0.0000 C   0  0  0  0  0  0  0  0  0  0  0  0
    1.9233    1.1104    0.0000 N   0  0  0  0  0  0  0  0  0  0  0  0
    1.1387    0.8555    0.0000 N   0  0  0  0  0  0  0  0  0  0  0  0
    0.6538    1.5229    0.0000 C   0  0  0  0  0  0  0  0  0  0  0  0
    1.1387    2.1904    0.0000 N   0  0  0  0  0  0  0  0  0  0  0  0
    1.9233    1.9354    0.0000 C   0  0  0  0  0  0  0  0  0  0  0  0
    2.6378    2.3479    0.0000 N   0  0  0  0  0  0  0  0  0  0  0  0
  1  2  1  0  0  0  0
  2  3  4  0  0  0  0
  3  4  4  0  0  0  0
  4  5  1  0  0  0  0
  5  6  1  0  0  0  0
  6  7  4  0  0  0  0
  7  8  4  0  0  0  0
  8  9  4  0  0  0  0
  9 10  1  0  0  0  0
  9 11  4  0  0  0  0
 11 12  1  0  0  0  0
 11 13  4  0  0  0  0
  6 13  4  0  0  0  0
  4 14  4  0  0  0  0
 14 15  4  0  0  0  0
 15 16  4  0  0  0  0
 16 17  4  0  0  0  0
 17 18  4  0  0  0  0
 14 18  4  0  0  0  0
 18 19  4  0  0  0  0
  2 19  4  0  0  0  0
M  END
> <IC50(uM)>
100.0

> <Outcome>
0.0

> <BindingDB ID>
52453

> <BindingDB MonomerID>
28840

> <BindingDB Ligand Name>
N-(3,4-dimethylphenyl)-5-methyl-[1,2,4]triazolo[1,5-a]pyrimidin-7-amine::triazolopyrimidine-based compound, DSM123

> <Curation/DataSource>
Curated from the literature by BindingDB

> <Article DOI>
10.1021/jm801343r

> <PMID>
19296651

> <Patent Number>
?

> <Authors>
Gujjar, R; Marwaha, A; El Mazouni, F; White, J; White, KL; Creason, S; Shackleford, DM; Baldwin, J; Charman, WN; Buckner, FS; Charman, S; Rathod, PK; Phillips, MA

> <Link to Ligand in BindingDB>
http://www.bindingdb.org/bind/chemsearch/marvin/MolStructure.jsp?monomerid=28840

> <Link to Ligand-Target Pair in BindingDB>
http://www.bindingdb.org/jsp/dbsearch/PrimarySearch_ki.jsp?energyterm=kJ/mole&tag=r21&monomerid=28840&enzyme=Dihydroorotate+Dehydrogenase+%28DHODH%29&column=ki&startPg=0&Increment=50&submit=Search

> <PubChem CID>
777184

> <PubChem SID>
58098028

$$$$

  Mrv2115 07222212352D          

 29 31  0  0  0  0            999 V2000
   -2.1434   11.7161    0.0000 C   0  0  0  0  0  0  0  0  0  0  0  0
   -2.1434   10.8911    0.0000 O   0  0  0  0  0  0  0  0  0  0  0  0
   -1.4289   10.4786    0.0000 C   0  0  0  0  0  0  0  0  0  0  0  0
   -0.7145   10.8911    0.0000 C   0  0  0  0  0  0  0  0  0  0  0  0
   -0.0000   10.4786    0.0000 C   0  0  0  0  0  0  0  0  0  0  0  0
   -0.0000    9.6536    0.0000 C   0  0  0  0  0  0  0  0  0  0  0  0
   -0.7145    9.2411    0.0000 C   0  0  0  0  0  0  0  0  0  0  0  0
   -0.7145    8.4161    0.0000 C   0  0  0  0  0  0  0  0  0  0  0  0
   -0.0000    8.0036    0.0000 C   0  0  0  0  0  0  0  0  0  0  0  0
   -0.0000    7.1786    0.0000 C   0  0  0  0  0  0  0  0  0  0  0  0
   -0.7145    6.7661    0.0000 C   0  0  0  0  0  0  0  0  0  0  0  0
   -0.7145    5.9411    0.0000 N   0  0  0  0  0  0  0  0  0  0  0  0
   -0.0000    5.5286    0.0000 C   0  0  0  0  0  0  0  0  0  0  0  0
    0.7145    5.9411    0.0000 O   0  0  0  0  0  0  0  0  0  0  0  0
   -0.0000    4.7036    0.0000 C   0  0  0  0  0  0  0  0  0  0  0  0
    0.6674    4.2187    0.0000 C   0  0  0  0  0  0  0  0  0  0  0  0
    1.4521    4.4736    0.0000 C   0  0  0  0  0  0  0  0  0  0  0  0
    1.6236    5.2806    0.0000 O   0  0  0  0  0  0  0  0  0  0  0  0
    2.0652    3.9216    0.0000 O   0  0  0  0  0  0  0  0  0  0  0  0
    0.4125    3.4340    0.0000 C   0  0  0  0  0  0  0  0  0  0  0  0
   -0.4125    3.4340    0.0000 S   0  0  0  0  0  0  0  0  0  0  0  0
   -0.6674    4.2187    0.0000 C   0  0  0  0  0  0  0  0  0  0  0  0
   -1.4521    4.4736    0.0000 C   0  0  0  0  0  0  0  0  0  0  0  0
   -1.6236    5.2806    0.0000 O   0  0  0  0  0  0  0  0  0  0  0  0
   -2.0652    3.9216    0.0000 O   0  0  0  0  0  0  0  0  0  0  0  0
   -1.4289    7.1786    0.0000 C   0  0  0  0  0  0  0  0  0  0  0  0
   -2.1434    6.7661    0.0000 F   0  0  0  0  0  0  0  0  0  0  0  0
   -1.4289    8.0036    0.0000 C   0  0  0  0  0  0  0  0  0  0  0  0
   -1.4289    9.6536    0.0000 C   0  0  0  0  0  0  0  0  0  0  0  0
  1  2  1  0  0  0  0
  2  3  1  0  0  0  0
  3  4  4  0  0  0  0
  4  5  4  0  0  0  0
  5  6  4  0  0  0  0
  6  7  4  0  0  0  0
  7  8  1  0  0  0  0
  8  9  4  0  0  0  0
  9 10  4  0  0  0  0
 10 11  4  0  0  0  0
 11 12  1  0  0  0  0
 12 13  1  0  0  0  0
 13 14  2  0  0  0  0
 13 15  1  0  0  0  0
 15 16  4  0  0  0  0
 16 17  1  0  0  0  0
 17 18  2  0  0  0  0
 17 19  1  0  0  0  0
 16 20  4  0  0  0  0
 20 21  4  0  0  0  0
 21 22  4  0  0  0  0
 15 22  4  0  0  0  0
 22 23  1  0  0  0  0
 23 24  2  0  0  0  0
 23 25  1  0  0  0  0
 11 26  4  0  0  0  0
 26 27  1  0  0  0  0
 26 28  4  0  0  0  0
  8 28  4  0  0  0  0
  7 29  4  0  0  0  0
  3 29  4  0  0  0  0
M  END
> <IC50(uM)>
1.0

> <Outcome>
1.0

> <BindingDB ID>
29225

> <BindingDB MonomerID>
16122

> <BindingDB Ligand Name>
3-{[2-fluoro-4-(3-methoxyphenyl)phenyl]carbamoyl}thiophene-2,4-dicarboxylic acid::Biphenyl-4-ylcarbamoyl Thiophene Analog 13

> <Curation/DataSource>
Curated from the literature by BindingDB

> <Article DOI>
10.1016/j.bmcl.2005.10.011

> <PMID>
16246558

> <Patent Number>
?

> <Authors>
Leban, J; Kralik, M; Mies, J; Baumgartner, R; Gassen, M; Tasler, S

> <Link to Ligand in BindingDB>
http://www.bindingdb.org/bind/chemsearch/marvin/MolStructure.jsp?monomerid=16122

> <Link to Ligand-Target Pair in BindingDB>
http://www.bindingdb.org/jsp/dbsearch/PrimarySearch_ki.jsp?energyterm=kJ/mole&tag=r21&monomerid=16122&enzyme=Dihydroorotate+Dehydrogenase+%28DHODH%29&column=ki&startPg=0&Increment=50&submit=Search

> <PubChem CID>
23647305

> <PubChem SID>
46516381

$$$$

  Mrv2115 07222212352D          

 30 33  0  0  0  0            999 V2000
    2.1434   -3.7125    0.0000 C   0  0  0  0  0  0  0  0  0  0  0  0
    2.1434   -2.8875    0.0000 O   0  0  0  0  0  0  0  0  0  0  0  0
    1.4289   -2.4750    0.0000 C   0  0  0  0  0  0  0  0  0  0  0  0
    0.7145   -2.8875    0.0000 O   0  0  0  0  0  0  0  0  0  0  0  0
    1.4289   -1.6500    0.0000 C   0  0  0  0  0  0  0  0  0  0  0  0
    0.7145   -1.2375    0.0000 C   0  0  0  0  0  0  0  0  0  0  0  0
    0.7145   -0.4125    0.0000 C   0  0  0  0  0  0  0  0  0  0  0  0
    0.0000    0.0000    0.0000 C   0  0  0  0  0  0  0  0  0  0  0  0
   -0.7145   -0.4125    0.0000 C   0  0  0  0  0  0  0  0  0  0  0  0
   -1.4289    0.0000    0.0000 C   0  0  0  0  0  0  0  0  0  0  0  0
   -1.4289    0.8250    0.0000 C   0  0  0  0  0  0  0  0  0  0  0  0
   -2.1434    1.2375    0.0000 C   0  0  0  0  0  0  0  0  0  0  0  0
   -2.8579    0.8250    0.0000 C   0  0  0  0  0  0  0  0  0  0  0  0
   -3.5724    1.2375    0.0000 N   0  0  0  0  0  0  0  0  0  0  0  0
   -3.5724    2.0625    0.0000 C   0  0  0  0  0  0  0  0  0  0  0  0
   -2.8579    2.4750    0.0000 C   0  0  0  0  0  0  0  0  0  0  0  0
   -2.1434    2.0625    0.0000 C   0  0  0  0  0  0  0  0  0  0  0  0
   -1.4289    2.4750    0.0000 C   0  0  0  0  0  0  0  0  0  0  0  0
   -0.7145    2.8875    0.0000 F   0  0  0  0  0  0  0  0  0  0  0  0
   -1.0164    1.7605    0.0000 F   0  0  0  0  0  0  0  0  0  0  0  0
   -1.8414    3.1895    0.0000 F   0  0  0  0  0  0  0  0  0  0  0  0
   -0.7145    1.2375    0.0000 C   0  0  0  0  0  0  0  0  0  0  0  0
    0.0000    0.8250    0.0000 C   0  0  0  0  0  0  0  0  0  0  0  0
    1.4289    0.0000    0.0000 N   0  0  0  0  0  0  0  0  0  0  0  0
    2.1434   -0.4125    0.0000 C   0  0  0  0  0  0  0  0  0  0  0  0
    2.8579    0.0000    0.0000 C   0  0  0  0  0  0  0  0  0  0  0  0
    3.5724   -0.4125    0.0000 C   0  0  0  0  0  0  0  0  0  0  0  0
    3.5724   -1.2375    0.0000 C   0  0  0  0  0  0  0  0  0  0  0  0
    2.8579   -1.6500    0.0000 C   0  0  0  0  0  0  0  0  0  0  0  0
    2.1434   -1.2375    0.0000 C   0  0  0  0  0  0  0  0  0  0  0  0
  1  2  1  0  0  0  0
  2  3  1  0  0  0  0
  3  4  2  0  0  0  0
  3  5  1  0  0  0  0
  5  6  4  0  0  0  0
  6  7  4  0  0  0  0
  7  8  1  0  0  0  0
  8  9  4  0  0  0  0
  9 10  4  0  0  0  0
 10 11  4  0  0  0  0
 11 12  1  0  0  0  0
 12 13  4  0  0  0  0
 13 14  4  0  0  0  0
 14 15  4  0  0  0  0
 15 16  4  0  0  0  0
 16 17  4  0  0  0  0
 12 17  4  0  0  0  0
 17 18  1  0  0  0  0
 18 19  1  0  0  0  0
 18 20  1  0  0  0  0
 18 21  1  0  0  0  0
 11 22  4  0  0  0  0
 22 23  4  0  0  0  0
  8 23  4  0  0  0  0
  7 24  4  0  0  0  0
 24 25  4  0  0  0  0
 25 26  4  0  0  0  0
 26 27  4  0  0  0  0
 27 28  4  0  0  0  0
 28 29  4  0  0  0  0
 29 30  4  0  0  0  0
  5 30  4  0  0  0  0
 25 30  4  0  0  0  0
M  END
> <IC50(uM)>
50.0

> <Outcome>
0.0

> <BindingDB ID>
51126212

> <BindingDB MonomerID>
50461896

> <BindingDB Ligand Name>
CHEMBL4226738

> <Curation/DataSource>
ChEMBL

> <Article DOI>
10.1021/acs.jmedchem.7b01862

> <PMID>
29727569

> <Patent Number>
?

> <Authors>
Madak, JT; Cuthbertson, CR; Miyata, Y; Tamura, S; Petrunak, EM; Stuckey, JA; Han, Y; He, M; Sun, D; Showalter, HD; Neamati, N

> <Link to Ligand in BindingDB>
http://www.bindingdb.org/bind/chemsearch/marvin/MolStructure.jsp?monomerid=50461896

> <Link to Ligand-Target Pair in BindingDB>
http://www.bindingdb.org/jsp/dbsearch/PrimarySearch_ki.jsp?energyterm=kJ/mole&tag=r21&monomerid=50461896&enzyme=Dihydroorotate+dehydrogenase&column=ki&startPg=0&Increment=50&submit=Search

> <PubChem CID>
145967883

> <PubChem SID>
433929161

$$$$

  Mrv2115 07222212352D          

 27 29  0  0  0  0            999 V2000
   -2.1434   -0.4125    0.0000 C   0  0  0  0  0  0  0  0  0  0  0  0
   -2.1434   -1.2375    0.0000 C   0  0  0  0  0  0  0  0  0  0  0  0
   -2.8579   -1.6500    0.0000 O   0  0  0  0  0  0  0  0  0  0  0  0
   -2.8579   -2.4750    0.0000 C   0  0  0  0  0  0  0  0  0  0  0  0
   -2.1434   -2.8875    0.0000 C   0  0  0  0  0  0  0  0  0  0  0  0
   -2.1434   -3.7125    0.0000 C   0  0  0  0  0  0  0  0  0  0  0  0
   -2.8579   -4.1250    0.0000 C   0  0  0  0  0  0  0  0  0  0  0  0
   -2.8579   -4.9500    0.0000 F   0  0  0  0  0  0  0  0  0  0  0  0
   -3.5724   -3.7125    0.0000 C   0  0  0  0  0  0  0  0  0  0  0  0
   -4.2868   -4.1250    0.0000 C   0  0  0  0  0  0  0  0  0  0  0  0
   -5.0013   -3.7125    0.0000 C   0  0  0  0  0  0  0  0  0  0  0  0
   -5.7158   -4.1250    0.0000 C   0  0  0  0  0  0  0  0  0  0  0  0
   -5.7158   -4.9500    0.0000 C   0  0  0  0  0  0  0  0  0  0  0  0
   -6.4302   -5.3625    0.0000 N   0  0  0  0  0  0  0  0  0  0  0  0
   -6.4302   -6.1875    0.0000 C   0  0  0  0  0  0  0  0  0  0  0  0
   -5.7158   -6.6000    0.0000 C   0  0  0  0  0  0  0  0  0  0  0  0
   -5.7158   -7.4250    0.0000 C   0  0  0  0  0  0  0  0  0  0  0  0
   -6.4302   -7.8375    0.0000 C   0  0  0  0  0  0  0  0  0  0  0  0
   -6.4302   -8.6625    0.0000 C   0  0  0  0  0  0  0  0  0  0  0  0
   -7.1447   -7.4250    0.0000 C   0  0  0  0  0  0  0  0  0  0  0  0
   -7.1447   -6.6000    0.0000 C   0  0  0  0  0  0  0  0  0  0  0  0
   -7.8592   -6.1875    0.0000 C   0  0  0  0  0  0  0  0  0  0  0  0
   -7.8592   -5.3625    0.0000 O   0  0  0  0  0  0  0  0  0  0  0  0
   -8.5737   -6.6000    0.0000 O   0  0  0  0  0  0  0  0  0  0  0  0
   -5.0013   -5.3625    0.0000 C   0  0  0  0  0  0  0  0  0  0  0  0
   -4.2868   -4.9500    0.0000 N   0  0  0  0  0  0  0  0  0  0  0  0
   -3.5724   -2.8875    0.0000 C   0  0  0  0  0  0  0  0  0  0  0  0
  1  2  1  0  0  0  0
  2  3  1  0  0  0  0
  3  4  1  0  0  0  0
  4  5  4  0  0  0  0
  5  6  4  0  0  0  0
  6  7  4  0  0  0  0
  7  8  1  0  0  0  0
  7  9  4  0  0  0  0
  9 10  1  0  0  0  0
 10 11  4  0  0  0  0
 11 12  4  0  0  0  0
 12 13  4  0  0  0  0
 13 14  1  0  0  0  0
 14 15  1  0  0  0  0
 15 16  4  0  0  0  0
 16 17  4  0  0  0  0
 17 18  4  0  0  0  0
 18 19  1  0  0  0  0
 18 20  4  0  0  0  0
 20 21  4  0  0  0  0
 15 21  4  0  0  0  0
 21 22  1  0  0  0  0
 22 23  2  0  0  0  0
 22 24  1  0  0  0  0
 13 25  4  0  0  0  0
 25 26  4  0  0  0  0
 10 26  4  0  0  0  0
  9 27  4  0  0  0  0
  4 27  4  0  0  0  0
M  END
> <IC50(uM)>
0.019

> <Outcome>
1.0

> <BindingDB ID>
219995

> <BindingDB MonomerID>
102465

> <BindingDB Ligand Name>
US8536165, 54

> <Curation/DataSource>
US Patent

> <Article DOI>
?

> <PMID>
?

> <Patent Number>
US8536165

> <Authors>
Castro Palomino Laria, JC; Terricabras Belart, E; Erra Sola, M; Navarro Romero, E; Fonquerna Pou, S; Cardus Figueras, A; Lozoya Toribio, ME

> <Link to Ligand in BindingDB>
http://www.bindingdb.org/bind/chemsearch/marvin/MolStructure.jsp?monomerid=102465

> <Link to Ligand-Target Pair in BindingDB>
http://www.bindingdb.org/jsp/dbsearch/PrimarySearch_ki.jsp?energyterm=kJ/mole&tag=r21&monomerid=102465&enzyme=Dihydroorotate+dehydrogenase&column=ki&startPg=0&Increment=50&submit=Search

> <PubChem CID>
25187573

> <PubChem SID>
172097756

$$$$

  Mrv2115 07222212352D          

 38 41  0  0  0  0            999 V2000
   -5.1659    1.4455    0.0000 C   0  0  0  0  0  0  0  0  0  0  0  0
   -4.3409    1.4455    0.0000 C   0  0  0  0  0  0  0  0  0  0  0  0
   -3.9284    2.1599    0.0000 C   0  0  0  0  0  0  0  0  0  0  0  0
   -3.1034    2.1599    0.0000 C   0  0  0  0  0  0  0  0  0  0  0  0
   -2.6909    2.8744    0.0000 C   0  0  0  0  0  0  0  0  0  0  0  0
   -2.2784    3.5889    0.0000 F   0  0  0  0  0  0  0  0  0  0  0  0
   -3.4054    3.2869    0.0000 F   0  0  0  0  0  0  0  0  0  0  0  0
   -1.9765    2.4619    0.0000 F   0  0  0  0  0  0  0  0  0  0  0  0
   -2.6909    1.4455    0.0000 C   0  0  0  0  0  0  0  0  0  0  0  0
   -3.1034    0.7310    0.0000 C   0  0  0  0  0  0  0  0  0  0  0  0
   -3.9284    0.7310    0.0000 C   0  0  0  0  0  0  0  0  0  0  0  0
   -4.3409    0.0165    0.0000 N   0  0  0  0  0  0  0  0  0  0  0  0
   -3.9284   -0.6979    0.0000 C   0  0  0  0  0  0  0  0  0  0  0  0
   -4.3409   -1.4124    0.0000 O   0  0  0  0  0  0  0  0  0  0  0  0
   -3.1034   -0.6979    0.0000 C   0  0  0  0  0  0  0  0  0  0  0  0
   -2.6909    0.0165    0.0000 C   0  0  0  0  0  0  0  0  0  0  0  0
   -1.8659    0.0165    0.0000 C   0  0  0  0  0  0  0  0  0  0  0  0
   -1.4534    0.7310    0.0000 F   0  0  0  0  0  0  0  0  0  0  0  0
   -1.4534   -0.6979    0.0000 C   0  0  0  0  0  0  0  0  0  0  0  0
   -0.6284   -0.6979    0.0000 N   0  0  0  0  0  0  0  0  0  0  0  0
   -0.1435   -1.3654    0.0000 N   0  0  0  0  0  0  0  0  0  0  0  0
    0.6411   -1.1104    0.0000 C   0  0  0  0  0  0  0  0  0  0  0  0
    0.6411   -0.2854    0.0000 N   0  0  0  0  0  0  0  0  0  0  0  0
   -0.1435   -0.0305    0.0000 C   0  0  0  0  0  0  0  0  0  0  0  0
   -0.3984    0.7541    0.0000 O   0  0  0  0  0  0  0  0  0  0  0  0
    1.3556    0.1271    0.0000 C   0  0  0  0  0  0  0  0  0  0  0  0
    2.0701   -0.2854    0.0000 C   0  0  0  0  0  0  0  0  0  0  0  0
    2.0701   -1.1104    0.0000 O   0  0  0  0  0  0  0  0  0  0  0  0
    1.3556   -1.5229    0.0000 C   0  0  0  0  0  0  0  0  0  0  0  0
   -1.8659   -1.4124    0.0000 C   0  0  0  0  0  0  0  0  0  0  0  0
   -2.6909   -1.4124    0.0000 C   0  0  0  0  0  0  0  0  0  0  0  0
   -3.1034   -2.1269    0.0000 O   0  0  0  0  0  0  0  0  0  0  0  0
   -2.6909   -2.8414    0.0000 C   0  0  0  0  0  0  0  0  0  0  0  0
   -1.8659   -2.8414    0.0000 C   0  0  0  0  0  0  0  0  0  0  0  0
   -3.1034   -3.5558    0.0000 C   0  0  0  0  0  0  0  0  0  0  0  0
   -3.8179   -3.1433    0.0000 F   0  0  0  0  0  0  0  0  0  0  0  0
   -2.3890   -3.9683    0.0000 F   0  0  0  0  0  0  0  0  0  0  0  0
   -3.5159   -4.2703    0.0000 F   0  0  0  0  0  0  0  0  0  0  0  0
  1  2  1  0  0  0  0
  2  3  4  0  0  0  0
  3  4  4  0  0  0  0
  4  5  1  0  0  0  0
  5  6  1  0  0  0  0
  5  7  1  0  0  0  0
  5  8  1  0  0  0  0
  4  9  4  0  0  0  0
  9 10  4  0  0  0  0
 10 11  4  0  0  0  0
  2 11  4  0  0  0  0
 11 12  1  0  0  0  0
 12 13  1  0  0  0  0
 13 14  2  0  0  0  0
 13 15  1  0  0  0  0
 15 16  4  0  0  0  0
 16 17  4  0  0  0  0
 17 18  1  0  0  0  0
 17 19  4  0  0  0  0
 19 20  1  0  0  0  0
 20 21  4  0  0  0  0
 21 22  4  0  0  0  0
 22 23  4  0  0  0  0
 23 24  4  0  0  0  0
 20 24  4  0  0  0  0
 24 25  2  0  0  0  0
 23 26  1  0  0  0  0
 26 27  1  0  0  0  0
 27 28  1  0  0  0  0
 28 29  1  0  0  0  0
 22 29  1  0  0  0  0
 19 30  4  0  0  0  0
 30 31  4  0  0  0  0
 15 31  4  0  0  0  0
 31 32  1  0  0  0  0
 32 33  1  0  0  0  0
 33 34  1  0  0  0  0
 33 35  1  0  0  0  0
 35 36  1  0  0  0  0
 35 37  1  0  0  0  0
 35 38  1  0  0  0  0
M  END
> <IC50(uM)>
0.6

> <Outcome>
1.0

> <BindingDB ID>
1020592

> <BindingDB MonomerID>
490531

> <BindingDB Ligand Name>
5-fluoro-N-[2-methyl-4-(trifluoromethyl)phenyl]-4-(3-oxo-5,6-dihydro-3H-[1,2,4]triazolo[3,4-c]-[1,4]oxazin-2(8H)-yl)-2-{[(2S)-1,1,1-trifluoropropan-2-yl]oxy}benzamide::US10968216, Example 199

> <Curation/DataSource>
US Patent

> <Article DOI>
?

> <PMID>
?

> <Patent Number>
US10968216

> <Authors>
Gradl, SN; Nguyen, D; Eis, K; Gunther, J; Stellfeld, T; Janzer, A; Christian, S; Mueller, T; Sheikh, SE; Zhou, HJ; Zhao, C; Sykes, DB; Ferrara, SJ; Liu, K; Herbert, SA; Merz, C; Niehues, M; Nising, CF; Schafer, M; Zimmermann, K; Knablein, J; Thede, K; Faupel, T

> <Link to Ligand in BindingDB>
http://www.bindingdb.org/bind/chemsearch/marvin/MolStructure.jsp?monomerid=490531

> <Link to Ligand-Target Pair in BindingDB>
http://www.bindingdb.org/jsp/dbsearch/PrimarySearch_ki.jsp?energyterm=kJ/mole&tag=r21&monomerid=490531&enzyme=Dihydroorotate+dehydrogenase&column=ki&startPg=0&Increment=50&submit=Search

> <PubChem CID>
134474507

> <PubChem SID>
447117257

$$$$

  Mrv2115 07222212352D          

 21 23  0  0  0  0            999 V2000
    4.0668    2.3479    0.0000 C   0  0  0  0  0  0  0  0  0  0  0  0
    3.3523    1.9354    0.0000 C   0  0  0  0  0  0  0  0  0  0  0  0
    3.3523    1.1104    0.0000 C   0  0  0  0  0  0  0  0  0  0  0  0
    2.6378    0.6979    0.0000 C   0  0  0  0  0  0  0  0  0  0  0  0
    2.6378   -0.1271    0.0000 N   0  0  0  0  0  0  0  0  0  0  0  0
    1.9233   -0.5396    0.0000 C   0  0  0  0  0  0  0  0  0  0  0  0
    1.9233   -1.3646    0.0000 C   0  0  0  0  0  0  0  0  0  0  0  0
    1.2089   -1.7771    0.0000 C   0  0  0  0  0  0  0  0  0  0  0  0
    0.4944   -1.3646    0.0000 C   0  0  0  0  0  0  0  0  0  0  0  0
   -0.2201   -1.7771    0.0000 C   0  0  0  0  0  0  0  0  0  0  0  0
   -0.9345   -2.1896    0.0000 F   0  0  0  0  0  0  0  0  0  0  0  0
   -0.6326   -1.0626    0.0000 F   0  0  0  0  0  0  0  0  0  0  0  0
    0.1924   -2.4915    0.0000 F   0  0  0  0  0  0  0  0  0  0  0  0
    0.4944   -0.5396    0.0000 C   0  0  0  0  0  0  0  0  0  0  0  0
    1.2089   -0.1271    0.0000 C   0  0  0  0  0  0  0  0  0  0  0  0
    1.9233    1.1104    0.0000 N   0  0  0  0  0  0  0  0  0  0  0  0
    1.1387    0.8555    0.0000 C   0  0  0  0  0  0  0  0  0  0  0  0
    0.6538    1.5229    0.0000 C   0  0  0  0  0  0  0  0  0  0  0  0
    1.1387    2.1904    0.0000 N   0  0  0  0  0  0  0  0  0  0  0  0
    1.9233    1.9354    0.0000 C   0  0  0  0  0  0  0  0  0  0  0  0
    2.6378    2.3479    0.0000 N   0  0  0  0  0  0  0  0  0  0  0  0
  1  2  1  0  0  0  0
  2  3  4  0  0  0  0
  3  4  4  0  0  0  0
  4  5  1  0  0  0  0
  5  6  1  0  0  0  0
  6  7  4  0  0  0  0
  7  8  4  0  0  0  0
  8  9  4  0  0  0  0
  9 10  1  0  0  0  0
 10 11  1  0  0  0  0
 10 12  1  0  0  0  0
 10 13  1  0  0  0  0
  9 14  4  0  0  0  0
 14 15  4  0  0  0  0
  6 15  4  0  0  0  0
  4 16  4  0  0  0  0
 16 17  4  0  0  0  0
 17 18  4  0  0  0  0
 18 19  4  0  0  0  0
 19 20  4  0  0  0  0
 16 20  4  0  0  0  0
 20 21  4  0  0  0  0
  2 21  4  0  0  0  0
M  END
> <IC50(uM)>
100.0

> <Outcome>
0.0

> <BindingDB ID>
50967536

> <BindingDB MonomerID>
50396723

> <BindingDB Ligand Name>
CHEMBL2172226::US9238653, Table 5, Compound 2

> <Curation/DataSource>
ChEMBL

> <Article DOI>
10.1021/jm300351w

> <PMID>
22877245

> <Patent Number>
?

> <Authors>
Marwaha, A; White, J; El Mazouni, F; Creason, SA; Kokkonda, S; Buckner, FS; Charman, SA; Phillips, MA; Rathod, PK

> <Link to Ligand in BindingDB>
http://www.bindingdb.org/bind/chemsearch/marvin/MolStructure.jsp?monomerid=50396723

> <Link to Ligand-Target Pair in BindingDB>
http://www.bindingdb.org/jsp/dbsearch/PrimarySearch_ki.jsp?energyterm=kJ/mole&tag=r21&monomerid=50396723&enzyme=Dihydroorotate+dehydrogenase&column=ki&startPg=0&Increment=50&submit=Search

> <PubChem CID>
51347106

> <PubChem SID>
163345747

$$$$

  Mrv2115 07222212352D          

 37 39  0  0  0  0            999 V2000
    0.7145   -3.7125    0.0000 C   0  0  0  0  0  0  0  0  0  0  0  0
    1.4289   -4.1250    0.0000 C   0  0  0  0  0  0  0  0  0  0  0  0
    1.4289   -4.9500    0.0000 N   0  0  0  0  0  0  0  0  0  0  0  0
    0.7615   -5.4349    0.0000 C   0  0  0  0  0  0  0  0  0  0  0  0
   -0.0231   -5.1800    0.0000 O   0  0  0  0  0  0  0  0  0  0  0  0
   -0.6362   -5.7320    0.0000 C   0  0  0  0  0  0  0  0  0  0  0  0
   -1.4208   -5.4771    0.0000 C   0  0  0  0  0  0  0  0  0  0  0  0
   -0.4647   -6.5390    0.0000 C   0  0  0  0  0  0  0  0  0  0  0  0
    1.0164   -6.2195    0.0000 N   0  0  0  0  0  0  0  0  0  0  0  0
    1.8414   -6.2195    0.0000 N   0  0  0  0  0  0  0  0  0  0  0  0
    2.3264   -6.8870    0.0000 C   0  0  0  0  0  0  0  0  0  0  0  0
    3.1468   -6.8007    0.0000 C   0  0  0  0  0  0  0  0  0  0  0  0
    3.6318   -7.4682    0.0000 C   0  0  0  0  0  0  0  0  0  0  0  0
    4.4522   -7.3820    0.0000 O   0  0  0  0  0  0  0  0  0  0  0  0
    4.7878   -6.6283    0.0000 C   0  0  0  0  0  0  0  0  0  0  0  0
    4.3029   -5.9608    0.0000 C   0  0  0  0  0  0  0  0  0  0  0  0
    5.6083   -6.5420    0.0000 C   0  0  0  0  0  0  0  0  0  0  0  0
    5.6945   -7.3625    0.0000 F   0  0  0  0  0  0  0  0  0  0  0  0
    5.5221   -5.7216    0.0000 F   0  0  0  0  0  0  0  0  0  0  0  0
    6.4288   -6.4558    0.0000 F   0  0  0  0  0  0  0  0  0  0  0  0
    3.2962   -8.2219    0.0000 C   0  0  0  0  0  0  0  0  0  0  0  0
    3.7811   -8.8893    0.0000 C   0  0  0  0  0  0  0  0  0  0  0  0
    3.4456   -9.6430    0.0000 O   0  0  0  0  0  0  0  0  0  0  0  0
    4.6016   -8.8031    0.0000 N   0  0  0  0  0  0  0  0  0  0  0  0
    5.0865   -9.4705    0.0000 C   0  0  0  0  0  0  0  0  0  0  0  0
    5.9070   -9.3843    0.0000 C   0  0  0  0  0  0  0  0  0  0  0  0
    6.2426   -8.6306    0.0000 F   0  0  0  0  0  0  0  0  0  0  0  0
    6.3919  -10.0517    0.0000 C   0  0  0  0  0  0  0  0  0  0  0  0
    6.0564  -10.8054    0.0000 C   0  0  0  0  0  0  0  0  0  0  0  0
    5.2359  -10.8916    0.0000 C   0  0  0  0  0  0  0  0  0  0  0  0
    4.7510  -10.2242    0.0000 C   0  0  0  0  0  0  0  0  0  0  0  0
    3.9305  -10.3104    0.0000 F   0  0  0  0  0  0  0  0  0  0  0  0
    2.4757   -8.3081    0.0000 C   0  0  0  0  0  0  0  0  0  0  0  0
    1.9908   -7.6407    0.0000 C   0  0  0  0  0  0  0  0  0  0  0  0
    1.1703   -7.7269    0.0000 F   0  0  0  0  0  0  0  0  0  0  0  0
    2.0964   -5.4349    0.0000 C   0  0  0  0  0  0  0  0  0  0  0  0
    2.8810   -5.1800    0.0000 O   0  0  0  0  0  0  0  0  0  0  0  0
  1  2  1  0  0  0  0
  2  3  1  0  0  0  0
  3  4  4  0  0  0  0
  4  5  1  0  0  0  0
  5  6  1  0  0  0  0
  6  7  1  0  0  0  0
  6  8  1  0  0  0  0
  4  9  4  0  0  0  0
  9 10  4  0  0  0  0
 10 11  1  0  0  0  0
 11 12  4  0  0  0  0
 12 13  4  0  0  0  0
 13 14  1  0  0  0  0
 14 15  1  0  0  0  0
 15 16  1  0  0  0  0
 15 17  1  0  0  0  0
 17 18  1  0  0  0  0
 17 19  1  0  0  0  0
 17 20  1  0  0  0  0
 13 21  4  0  0  0  0
 21 22  1  0  0  0  0
 22 23  2  0  0  0  0
 22 24  1  0  0  0  0
 24 25  1  0  0  0  0
 25 26  4  0  0  0  0
 26 27  1  0  0  0  0
 26 28  4  0  0  0  0
 28 29  4  0  0  0  0
 29 30  4  0  0  0  0
 30 31  4  0  0  0  0
 25 31  4  0  0  0  0
 31 32  1  0  0  0  0
 21 33  4  0  0  0  0
 33 34  4  0  0  0  0
 11 34  4  0  0  0  0
 34 35  1  0  0  0  0
 10 36  4  0  0  0  0
  3 36  4  0  0  0  0
 36 37  2  0  0  0  0
M  END
> <IC50(uM)>
4.0

> <Outcome>
0.0

> <BindingDB ID>
1098729; 972575

> <BindingDB MonomerID>
470450

> <BindingDB Ligand Name>
N-(2,6-difluorophenyl)-4-[4-ethyl-5-oxo-3-(propan-2-yloxy)-4,5-dihydro-1H-1,2,4-triazol-1-yl]-5-fluoro-2-{[(2S)-1,1,1-trifluoropropan-2-yl]oxy}benzamide::US10815215, Example 117::US11130745, Example 117; N-(2,6-difluorophenyl)-4-[4-ethyl-5-oxo-3-(propan-2-yloxy)-4,5-dihydro-1H-1,2,4-triazol-1-yl]-5-fluoro-2-{[(2S)-1,1,1-trifluoropropan-2-yl]oxy}benzamide::US10815215, Example 117

> <Curation/DataSource>
US Patent

> <Article DOI>
?

> <PMID>
?

> <Patent Number>
US11130745; US10815215

> <Authors>
Gradl, SN; Nguyen, D; Eis, K; Gunther, J; Stellfeld, T; Janzer, A; Christian, S; Muller, T; Sheikh, SE; Sykes, DB; Ferrara, SJ; Krober, M; Merz, C; Niehues, M; Schafer, M; Zimmermann, K; Nising, CF; Gradl, SN; Nguyen, D; Eis, K; Gunther, J; Stellfeld, T; Janzer, A; Christian, S; Muller, T; Sheikh, SE; Zhou, HJ; Zhao, C; Sykes, DB; Ferrara, SJ; Liu, K; Krober, M; Merz, C; Niehues, M; Schafer, M; Zimmermann, K; Nising, CF

> <Link to Ligand in BindingDB>
http://www.bindingdb.org/bind/chemsearch/marvin/MolStructure.jsp?monomerid=470450

> <Link to Ligand-Target Pair in BindingDB>
http://www.bindingdb.org/jsp/dbsearch/PrimarySearch_ki.jsp?energyterm=kJ/mole&tag=r21&monomerid=470450&enzyme=Dihydroorotate+dehydrogenase&column=ki&startPg=0&Increment=50&submit=Search

> <PubChem CID>
134469889

> <PubChem SID>
441609627

$$$$

  Mrv2115 07222212352D          

 32 35  0  0  0  0            999 V2000
    0.5269   -3.0225    0.0000 C   0  0  0  0  0  0  0  0  0  0  0  0
   -0.0862   -2.4705    0.0000 C   0  0  0  0  0  0  0  0  0  0  0  0
   -0.8932   -2.6420    0.0000 N   0  0  0  0  0  0  0  0  0  0  0  0
   -1.3057   -1.9275    0.0000 N   0  0  0  0  0  0  0  0  0  0  0  0
   -0.7537   -1.3144    0.0000 C   0  0  0  0  0  0  0  0  0  0  0  0
   -0.9252   -0.5075    0.0000 Cl  0  0  0  0  0  0  0  0  0  0  0  0
    0.0000   -1.6500    0.0000 C   0  0  0  0  0  0  0  0  0  0  0  0
    0.7145   -1.2375    0.0000 N   0  0  0  0  0  0  0  0  0  0  0  0
    0.7145   -0.4125    0.0000 C   0  0  0  0  0  0  0  0  0  0  0  0
    1.4289    0.0000    0.0000 C   0  0  0  0  0  0  0  0  0  0  0  0
    1.4289    0.8250    0.0000 C   0  0  0  0  0  0  0  0  0  0  0  0
    2.1434    1.2375    0.0000 C   0  0  0  0  0  0  0  0  0  0  0  0
    0.7145    1.2375    0.0000 C   0  0  0  0  0  0  0  0  0  0  0  0
    2.1434   -0.4125    0.0000 C   0  0  0  0  0  0  0  0  0  0  0  0
    2.8579    0.0000    0.0000 C   0  0  0  0  0  0  0  0  0  0  0  0
    3.5724   -0.4125    0.0000 C   0  0  0  0  0  0  0  0  0  0  0  0
    4.2868   -0.0000    0.0000 C   0  0  0  0  0  0  0  0  0  0  0  0
    4.3731    0.8205    0.0000 C   0  0  0  0  0  0  0  0  0  0  0  0
    5.1800    0.9920    0.0000 N   0  0  0  0  0  0  0  0  0  0  0  0
    5.5156    1.7457    0.0000 C   0  0  0  0  0  0  0  0  0  0  0  0
    5.5925    0.2775    0.0000 C   0  0  0  0  0  0  0  0  0  0  0  0
    6.4130    0.1913    0.0000 C   0  0  0  0  0  0  0  0  0  0  0  0
    7.2335    0.1051    0.0000 C   0  0  0  0  0  0  0  0  0  0  0  0
    6.3268   -0.6292    0.0000 C   0  0  0  0  0  0  0  0  0  0  0  0
    6.4993    1.0118    0.0000 O   0  0  0  0  0  0  0  0  0  0  0  0
    5.0405   -0.3356    0.0000 N   0  0  0  0  0  0  0  0  0  0  0  0
    3.5724   -1.2375    0.0000 C   0  0  0  0  0  0  0  0  0  0  0  0
    4.2868   -1.6500    0.0000 F   0  0  0  0  0  0  0  0  0  0  0  0
    2.8579   -1.6500    0.0000 C   0  0  0  0  0  0  0  0  0  0  0  0
    2.1434   -1.2375    0.0000 C   0  0  0  0  0  0  0  0  0  0  0  0
    1.4289   -1.6500    0.0000 C   0  0  0  0  0  0  0  0  0  0  0  0
    1.4289   -2.4750    0.0000 O   0  0  0  0  0  0  0  0  0  0  0  0
  1  2  1  0  0  0  0
  2  3  4  0  0  0  0
  3  4  4  0  0  0  0
  4  5  4  0  0  0  0
  5  6  1  0  0  0  0
  5  7  4  0  0  0  0
  2  7  4  0  0  0  0
  7  8  1  0  0  0  0
  8  9  4  0  0  0  0
  9 10  4  0  0  0  0
 10 11  1  0  0  0  0
 11 12  1  0  0  0  0
 11 13  1  0  0  0  0
 10 14  4  0  0  0  0
 14 15  4  0  0  0  0
 15 16  4  0  0  0  0
 16 17  1  0  0  0  0
 17 18  4  0  0  0  0
 18 19  4  0  0  0  0
 19 20  1  0  0  0  0
 19 21  4  0  0  0  0
 21 22  1  0  0  0  0
 22 23  1  0  0  0  0
 22 24  1  0  0  0  0
 22 25  1  0  0  0  0
 21 26  4  0  0  0  0
 17 26  4  0  0  0  0
 16 27  4  0  0  0  0
 27 28  1  0  0  0  0
 27 29  4  0  0  0  0
 29 30  4  0  0  0  0
 14 30  4  0  0  0  0
 30 31  4  0  0  0  0
  8 31  4  0  0  0  0
 31 32  2  0  0  0  0
M  STY  1   1 DAT
M  SAL   1  1   4
M  SDT   1 MRV_IMPLICIT_H                                        
M  SDD   1     0.5304   -0.4125    DR    ALL  0       0  
M  SED   1 IMPL_H1
M  END
> <IC50(uM)>
5.1E-4

> <Outcome>
1.0

> <BindingDB ID>
1121378

> <BindingDB MonomerID>
530444

> <BindingDB Ligand Name>
2-(5-Chloro-3-methyl-1H-pyrazol-4-yl)-7-fluoro-6-(2-(2-hydroxypropan-2-yl)-1-methyl-1H-imidazol-4-yl)-4-isopropylisoquinolin-1(2H)-one.::WO2022070068, Example 16

> <Curation/DataSource>
Curated from the literature by BindingDB

> <Article DOI>
?

> <PMID>
WO2022070068

> <Patent Number>
?

> <Authors>
Lindsey, D; Scott, K; Zhuming, Z

> <Link to Ligand in BindingDB>
http://www.bindingdb.org/bind/chemsearch/marvin/MolStructure.jsp?monomerid=530444

> <Link to Ligand-Target Pair in BindingDB>
http://www.bindingdb.org/jsp/dbsearch/PrimarySearch_ki.jsp?energyterm=kJ/mole&tag=r21&monomerid=530444&enzyme=Dihydroorotate+dehydrogenase&column=ki&startPg=0&Increment=50&submit=Search

> <PubChem CID>
?

> <PubChem SID>
?

$$$$

  Mrv2115 07222212352D          

 18 20  0  0  0  0            999 V2000
    0.8416   -5.6672    0.0000 C   0  0  0  0  0  0  0  0  0  0  0  0
    0.5867   -4.8826    0.0000 N   0  0  0  0  0  0  0  0  0  0  0  0
    1.1387   -4.2695    0.0000 C   0  0  0  0  0  0  0  0  0  0  0  0
    1.9457   -4.4410    0.0000 O   0  0  0  0  0  0  0  0  0  0  0  0
    0.8838   -3.4849    0.0000 C   0  0  0  0  0  0  0  0  0  0  0  0
    0.0992   -3.2299    0.0000 C   0  0  0  0  0  0  0  0  0  0  0  0
    0.0992   -2.4049    0.0000 C   0  0  0  0  0  0  0  0  0  0  0  0
    0.8838   -2.1500    0.0000 C   0  0  0  0  0  0  0  0  0  0  0  0
    1.1387   -1.3654    0.0000 N   0  0  0  0  0  0  0  0  0  0  0  0
    0.6538   -0.6979    0.0000 C   0  0  0  0  0  0  0  0  0  0  0  0
    1.1387   -0.0305    0.0000 N   0  0  0  0  0  0  0  0  0  0  0  0
    1.9233   -0.2854    0.0000 C   0  0  0  0  0  0  0  0  0  0  0  0
    2.6378    0.1271    0.0000 C   0  0  0  0  0  0  0  0  0  0  0  0
    3.3523   -0.2854    0.0000 C   0  0  0  0  0  0  0  0  0  0  0  0
    3.3523   -1.1104    0.0000 C   0  0  0  0  0  0  0  0  0  0  0  0
    2.6378   -1.5229    0.0000 C   0  0  0  0  0  0  0  0  0  0  0  0
    1.9233   -1.1104    0.0000 C   0  0  0  0  0  0  0  0  0  0  0  0
    1.3687   -2.8174    0.0000 S   0  0  0  0  0  0  0  0  0  0  0  0
  1  2  1  0  0  0  0
  2  3  1  0  0  0  0
  3  4  2  0  0  0  0
  3  5  1  0  0  0  0
  5  6  4  0  0  0  0
  6  7  4  0  0  0  0
  7  8  4  0  0  0  0
  8  9  1  0  0  0  0
  9 10  4  0  0  0  0
 10 11  4  0  0  0  0
 11 12  4  0  0  0  0
 12 13  4  0  0  0  0
 13 14  4  0  0  0  0
 14 15  4  0  0  0  0
 15 16  4  0  0  0  0
 16 17  4  0  0  0  0
 12 17  4  0  0  0  0
  9 17  4  0  0  0  0
  8 18  4  0  0  0  0
  5 18  4  0  0  0  0
M  END
> <IC50(uM)>
30.0

> <Outcome>
0.0

> <BindingDB ID>
50924657

> <BindingDB MonomerID>
50379139

> <BindingDB Ligand Name>
CHEMBL2012820::US8703811, 24

> <Curation/DataSource>
ChEMBL

> <Article DOI>
10.1021/ml200143c

> <PMID>
24900364

> <Patent Number>
?

> <Authors>
Skerlj, RT; Bastos, CM; Booker, ML; Kramer, ML; Barker, RH; Celatka, CA; Munoz, B; Sidhu, AB; Cortese, JF; Wittlin, S; Papastogiannidis, P; Angulo-Barturen, I; Jimenez-Diaz, MB; Sybertz, E

> <Link to Ligand in BindingDB>
http://www.bindingdb.org/bind/chemsearch/marvin/MolStructure.jsp?monomerid=50379139

> <Link to Ligand-Target Pair in BindingDB>
http://www.bindingdb.org/jsp/dbsearch/PrimarySearch_ki.jsp?energyterm=kJ/mole&tag=r21&monomerid=50379139&enzyme=Dihydroorotate+dehydrogenase&column=ki&startPg=0&Increment=50&submit=Search

> <PubChem CID>
58284844

> <PubChem SID>
160858222

$$$$

  Mrv2115 07222212352D          

 25 27  0  0  0  0            999 V2000
   -0.7145   -1.2375    0.0000 C   0  0  0  0  0  0  0  0  0  0  0  0
    0.0000   -1.6500    0.0000 O   0  0  0  0  0  0  0  0  0  0  0  0
    0.7145   -1.2375    0.0000 C   0  0  0  0  0  0  0  0  0  0  0  0
    0.7145   -0.4125    0.0000 C   0  0  0  0  0  0  0  0  0  0  0  0
    1.4289    0.0000    0.0000 C   0  0  0  0  0  0  0  0  0  0  0  0
    2.1434   -0.4125    0.0000 C   0  0  0  0  0  0  0  0  0  0  0  0
    2.8579    0.0000    0.0000 C   0  0  0  0  0  0  0  0  0  0  0  0
    3.5724   -0.4125    0.0000 C   0  0  0  0  0  0  0  0  0  0  0  0
    3.5724   -1.2375    0.0000 C   0  0  0  0  0  0  0  0  0  0  0  0
    2.8579   -1.6500    0.0000 C   0  0  0  0  0  0  0  0  0  0  0  0
    2.8579   -2.4750    0.0000 C   0  0  0  0  0  0  0  0  0  0  0  0
    3.5724   -2.8875    0.0000 C   0  0  0  0  0  0  0  0  0  0  0  0
    3.5724   -3.7125    0.0000 C   0  0  0  0  0  0  0  0  0  0  0  0
    4.2868   -4.1250    0.0000 C   0  0  0  0  0  0  0  0  0  0  0  0
    5.0013   -3.7125    0.0000 C   0  0  0  0  0  0  0  0  0  0  0  0
    5.7158   -4.1250    0.0000 O   0  0  0  0  0  0  0  0  0  0  0  0
    5.0013   -2.8875    0.0000 O   0  0  0  0  0  0  0  0  0  0  0  0
    4.2868   -4.9500    0.0000 N   0  0  0  0  0  0  0  0  0  0  0  0
    3.5724   -5.3625    0.0000 C   0  0  0  0  0  0  0  0  0  0  0  0
    3.5724   -6.1875    0.0000 O   0  0  0  0  0  0  0  0  0  0  0  0
    2.8579   -4.9500    0.0000 N   0  0  0  0  0  0  0  0  0  0  0  0
    2.8579   -4.1250    0.0000 C   0  0  0  0  0  0  0  0  0  0  0  0
    2.1434   -3.7125    0.0000 O   0  0  0  0  0  0  0  0  0  0  0  0
    2.1434   -1.2375    0.0000 C   0  0  0  0  0  0  0  0  0  0  0  0
    1.4289   -1.6500    0.0000 C   0  0  0  0  0  0  0  0  0  0  0  0
  1  2  1  0  0  0  0
  2  3  1  0  0  0  0
  3  4  4  0  0  0  0
  4  5  4  0  0  0  0
  5  6  4  0  0  0  0
  6  7  4  0  0  0  0
  7  8  4  0  0  0  0
  8  9  4  0  0  0  0
  9 10  4  0  0  0  0
 10 11  1  0  0  0  0
 11 12  1  0  0  0  0
 12 13  1  0  0  0  0
 13 14  4  0  0  0  0
 14 15  1  0  0  0  0
 15 16  2  0  0  0  0
 15 17  1  0  0  0  0
 14 18  4  0  0  0  0
 18 19  4  0  0  0  0
 19 20  2  0  0  0  0
 19 21  4  0  0  0  0
 21 22  4  0  0  0  0
 13 22  4  0  0  0  0
 22 23  2  0  0  0  0
 10 24  4  0  0  0  0
  6 24  4  0  0  0  0
 24 25  4  0  0  0  0
  3 25  4  0  0  0  0
M  STY  2   1 DAT   2 DAT
M  SAL   1  1  18
M  SDT   1 MRV_IMPLICIT_H                                        
M  SDD   1     0.5304   -0.4125    DR    ALL  0       0  
M  SED   1 IMPL_H1
M  SAL   2  1  21
M  SDT   2 MRV_IMPLICIT_H                                        
M  SDD   2     0.5304   -0.4125    DR    ALL  0       0  
M  SED   2 IMPL_H1
M  END
> <IC50(uM)>
0.068

> <Outcome>
1.0

> <BindingDB ID>
50555395

> <BindingDB MonomerID>
50211941

> <BindingDB Ligand Name>
CHEMBL3904389

> <Curation/DataSource>
ChEMBL

> <Article DOI>
10.1016/j.bmc.2017.01.009

> <PMID>
28118956

> <Patent Number>
?

> <Authors>
Inaoka, DK; Iida, M; Hashimoto, S; Tabuchi, T; Kuranaga, T; Balogun, EO; Honma, T; Tanaka, A; Harada, S; Nara, T; Kita, K; Inoue, M

> <Link to Ligand in BindingDB>
http://www.bindingdb.org/bind/chemsearch/marvin/MolStructure.jsp?monomerid=50211941

> <Link to Ligand-Target Pair in BindingDB>
http://www.bindingdb.org/jsp/dbsearch/PrimarySearch_ki.jsp?energyterm=kJ/mole&tag=r21&monomerid=50211941&enzyme=Dihydroorotate+dehydrogenase&column=ki&startPg=0&Increment=50&submit=Search

> <PubChem CID>
134134663

> <PubChem SID>
104088019

$$$$

  Mrv2115 07222212352D          

 20 21  0  0  0  0            999 V2000
   -0.1067   -0.0616    0.0000 C   0  0  0  0  0  0  0  0  0  0  0  0
    0.6078   -0.4741    0.0000 C   0  0  0  0  0  0  0  0  0  0  0  0
    1.3222   -0.0616    0.0000 O   0  0  0  0  0  0  0  0  0  0  0  0
    2.0367   -0.4741    0.0000 C   0  0  0  0  0  0  0  0  0  0  0  0
    2.7512   -0.0616    0.0000 O   0  0  0  0  0  0  0  0  0  0  0  0
    2.0367   -1.2991    0.0000 C   0  0  0  0  0  0  0  0  0  0  0  0
    1.3693   -1.7840    0.0000 C   0  0  0  0  0  0  0  0  0  0  0  0
    0.5846   -1.5291    0.0000 O   0  0  0  0  0  0  0  0  0  0  0  0
    1.6242   -2.5687    0.0000 C   0  0  0  0  0  0  0  0  0  0  0  0
    2.4492   -2.5687    0.0000 S   0  0  0  0  0  0  0  0  0  0  0  0
    2.7041   -1.7840    0.0000 C   0  0  0  0  0  0  0  0  0  0  0  0
    3.4888   -1.5291    0.0000 N   0  0  0  0  0  0  0  0  0  0  0  0
    4.1019   -2.0811    0.0000 C   0  0  0  0  0  0  0  0  0  0  0  0
    4.8865   -1.8262    0.0000 C   0  0  0  0  0  0  0  0  0  0  0  0
    5.4996   -2.3782    0.0000 C   0  0  0  0  0  0  0  0  0  0  0  0
    5.3281   -3.1852    0.0000 C   0  0  0  0  0  0  0  0  0  0  0  0
    5.9411   -3.7372    0.0000 C   0  0  0  0  0  0  0  0  0  0  0  0
    4.5434   -3.4401    0.0000 C   0  0  0  0  0  0  0  0  0  0  0  0
    4.3719   -4.2471    0.0000 C   0  0  0  0  0  0  0  0  0  0  0  0
    3.9303   -2.8881    0.0000 C   0  0  0  0  0  0  0  0  0  0  0  0
  1  2  1  0  0  0  0
  2  3  1  0  0  0  0
  3  4  1  0  0  0  0
  4  5  2  0  0  0  0
  4  6  1  0  0  0  0
  6  7  4  0  0  0  0
  7  8  1  0  0  0  0
  7  9  4  0  0  0  0
  9 10  4  0  0  0  0
 10 11  4  0  0  0  0
  6 11  4  0  0  0  0
 11 12  1  0  0  0  0
 12 13  1  0  0  0  0
 13 14  4  0  0  0  0
 14 15  4  0  0  0  0
 15 16  4  0  0  0  0
 16 17  1  0  0  0  0
 16 18  4  0  0  0  0
 18 19  1  0  0  0  0
 18 20  4  0  0  0  0
 13 20  4  0  0  0  0
M  END
> <IC50(uM)>
50.0

> <Outcome>
0.0

> <BindingDB ID>
51079175

> <BindingDB MonomerID>
50441283

> <BindingDB Ligand Name>
CHEMBL2431510

> <Curation/DataSource>
ChEMBL

> <Article DOI>
10.1021/jm400938g

> <PMID>
24073986

> <Patent Number>
?

> <Authors>
Xu, M; Zhu, J; Diao, Y; Zhou, H; Ren, X; Sun, D; Huang, J; Han, D; Zhao, Z; Zhu, L; Xu, Y; Li, H

> <Link to Ligand in BindingDB>
http://www.bindingdb.org/bind/chemsearch/marvin/MolStructure.jsp?monomerid=50441283

> <Link to Ligand-Target Pair in BindingDB>
http://www.bindingdb.org/jsp/dbsearch/PrimarySearch_ki.jsp?energyterm=kJ/mole&tag=r21&monomerid=50441283&enzyme=Dihydroorotate+dehydrogenase&column=ki&startPg=0&Increment=50&submit=Search

> <PubChem CID>
91898844

> <PubChem SID>
175453600

$$$$

  Mrv2115 07222212352D          

 19 20  0  0  0  0            999 V2000
    2.0367   -0.4741    0.0000 C   0  0  0  0  0  0  0  0  0  0  0  0
    2.0367   -1.2991    0.0000 C   0  0  0  0  0  0  0  0  0  0  0  0
    2.7041   -1.7840    0.0000 N   0  0  0  0  0  0  0  0  0  0  0  0
    2.4492   -2.5687    0.0000 N   0  0  0  0  0  0  0  0  0  0  0  0
    1.6242   -2.5687    0.0000 C   0  0  0  0  0  0  0  0  0  0  0  0
    1.1393   -3.2361    0.0000 N   0  0  0  0  0  0  0  0  0  0  0  0
    0.3188   -3.1499    0.0000 C   0  0  0  0  0  0  0  0  0  0  0  0
   -0.1661   -3.8173    0.0000 C   0  0  0  0  0  0  0  0  0  0  0  0
   -0.9866   -3.7311    0.0000 C   0  0  0  0  0  0  0  0  0  0  0  0
   -1.3222   -2.9774    0.0000 C   0  0  0  0  0  0  0  0  0  0  0  0
   -2.1426   -2.8911    0.0000 C   0  0  0  0  0  0  0  0  0  0  0  0
   -2.9631   -2.8049    0.0000 F   0  0  0  0  0  0  0  0  0  0  0  0
   -2.0564   -2.0707    0.0000 F   0  0  0  0  0  0  0  0  0  0  0  0
   -2.2289   -3.7116    0.0000 F   0  0  0  0  0  0  0  0  0  0  0  0
   -0.8372   -2.3099    0.0000 C   0  0  0  0  0  0  0  0  0  0  0  0
   -0.0168   -2.3962    0.0000 C   0  0  0  0  0  0  0  0  0  0  0  0
    1.3693   -1.7840    0.0000 C   0  0  0  0  0  0  0  0  0  0  0  0
    0.5846   -1.5291    0.0000 C   0  0  0  0  0  0  0  0  0  0  0  0
   -0.2000   -1.2742    0.0000 N   0  0  0  0  0  0  0  0  0  0  0  0
  1  2  1  0  0  0  0
  2  3  4  0  0  0  0
  3  4  4  0  0  0  0
  4  5  4  0  0  0  0
  5  6  1  0  0  0  0
  6  7  1  0  0  0  0
  7  8  4  0  0  0  0
  8  9  4  0  0  0  0
  9 10  4  0  0  0  0
 10 11  1  0  0  0  0
 11 12  1  0  0  0  0
 11 13  1  0  0  0  0
 11 14  1  0  0  0  0
 10 15  4  0  0  0  0
 15 16  4  0  0  0  0
  7 16  4  0  0  0  0
  5 17  4  0  0  0  0
  2 17  4  0  0  0  0
 17 18  1  0  0  0  0
 18 19  3  0  0  0  0
M  STY  1   1 DAT
M  SAL   1  1   4
M  SDT   1 MRV_IMPLICIT_H                                        
M  SDD   1     0.5304   -0.4125    DR    ALL  0       0  
M  SED   1 IMPL_H1
M  END
> <IC50(uM)>
2.6

> <Outcome>
0.0

> <BindingDB ID>
50786776

> <BindingDB MonomerID>
50066601

> <BindingDB Ligand Name>
5-Methyl-3-(4-trifluoromethyl-phenylamino)-1H-pyrazole-4-carbonitrile::CHEMBL334317

> <Curation/DataSource>
ChEMBL

> <Article DOI>
10.1021/jm981028c

> <PMID>
9719606

> <Patent Number>
?

> <Authors>
Papageorgiou, C; Albert, R; Floersheim, P; Lemaire, M; Bitch, F; Weber, HP; Andersen, E; Hungerford, V; Schreier, MH

> <Link to Ligand in BindingDB>
http://www.bindingdb.org/bind/chemsearch/marvin/MolStructure.jsp?monomerid=50066601

> <Link to Ligand-Target Pair in BindingDB>
http://www.bindingdb.org/jsp/dbsearch/PrimarySearch_ki.jsp?energyterm=kJ/mole&tag=r21&monomerid=50066601&enzyme=Dihydroorotate+dehydrogenase&column=ki&startPg=0&Increment=50&submit=Search

> <PubChem CID>
10825617

> <PubChem SID>
103961221

$$$$

  Mrv2115 07222212352D          

 26 29  0  0  0  0            999 V2000
    3.9934    2.4750    0.0000 O   0  0  0  0  0  0  0  0  0  0  0  0
    3.2789    2.0625    0.0000 C   0  0  0  0  0  0  0  0  0  0  0  0
    2.5645    2.4750    0.0000 O   0  0  0  0  0  0  0  0  0  0  0  0
    3.2789    1.2375    0.0000 C   0  0  0  0  0  0  0  0  0  0  0  0
    3.9934    0.8250    0.0000 C   0  0  0  0  0  0  0  0  0  0  0  0
    3.9934    0.0000    0.0000 C   0  0  0  0  0  0  0  0  0  0  0  0
    3.2789   -0.4125    0.0000 C   0  0  0  0  0  0  0  0  0  0  0  0
    2.5645    0.0000    0.0000 C   0  0  0  0  0  0  0  0  0  0  0  0
    1.7798   -0.2549    0.0000 N   0  0  0  0  0  0  0  0  0  0  0  0
    1.2949    0.4125    0.0000 C   0  0  0  0  0  0  0  0  0  0  0  0
    0.4699    0.4125    0.0000 C   0  0  0  0  0  0  0  0  0  0  0  0
    0.0574   -0.3020    0.0000 C   0  0  0  0  0  0  0  0  0  0  0  0
   -0.7676   -0.3020    0.0000 C   0  0  0  0  0  0  0  0  0  0  0  0
   -1.1801    0.4125    0.0000 C   0  0  0  0  0  0  0  0  0  0  0  0
   -2.0051    0.4125    0.0000 O   0  0  0  0  0  0  0  0  0  0  0  0
   -2.4176   -0.3020    0.0000 C   0  0  0  0  0  0  0  0  0  0  0  0
   -3.2426   -0.3020    0.0000 C   0  0  0  0  0  0  0  0  0  0  0  0
   -3.6551   -1.0164    0.0000 C   0  0  0  0  0  0  0  0  0  0  0  0
   -4.4801   -1.0164    0.0000 C   0  0  0  0  0  0  0  0  0  0  0  0
   -4.8926   -0.3020    0.0000 C   0  0  0  0  0  0  0  0  0  0  0  0
   -4.4801    0.4125    0.0000 C   0  0  0  0  0  0  0  0  0  0  0  0
   -3.6551    0.4125    0.0000 C   0  0  0  0  0  0  0  0  0  0  0  0
   -0.7676    1.1270    0.0000 C   0  0  0  0  0  0  0  0  0  0  0  0
    0.0574    1.1270    0.0000 C   0  0  0  0  0  0  0  0  0  0  0  0
    1.7798    1.0799    0.0000 N   0  0  0  0  0  0  0  0  0  0  0  0
    2.5645    0.8250    0.0000 C   0  0  0  0  0  0  0  0  0  0  0  0
  1  2  2  0  0  0  0
  2  3  1  0  0  0  0
  2  4  1  0  0  0  0
  4  5  4  0  0  0  0
  5  6  4  0  0  0  0
  6  7  4  0  0  0  0
  7  8  4  0  0  0  0
  8  9  4  0  0  0  0
  9 10  4  0  0  0  0
 10 11  1  0  0  0  0
 11 12  4  0  0  0  0
 12 13  4  0  0  0  0
 13 14  4  0  0  0  0
 14 15  1  0  0  0  0
 15 16  1  0  0  0  0
 16 17  1  0  0  0  0
 17 18  4  0  0  0  0
 18 19  4  0  0  0  0
 19 20  4  0  0  0  0
 20 21  4  0  0  0  0
 21 22  4  0  0  0  0
 17 22  4  0  0  0  0
 14 23  4  0  0  0  0
 23 24  4  0  0  0  0
 11 24  4  0  0  0  0
 10 25  4  0  0  0  0
 25 26  4  0  0  0  0
  4 26  4  0  0  0  0
  8 26  4  0  0  0  0
M  STY  1   1 DAT
M  SAL   1  1   9
M  SDT   1 MRV_IMPLICIT_H                                        
M  SDD   1     0.5304   -0.4125    DR    ALL  0       0  
M  SED   1 IMPL_H1
M  END
> <IC50(uM)>
4.95

> <Outcome>
0.0

> <BindingDB ID>
297742

> <BindingDB MonomerID>
155398

> <BindingDB Ligand Name>
US9006454, I2

> <Curation/DataSource>
US Patent

> <Article DOI>
?

> <PMID>
?

> <Patent Number>
US9006454

> <Authors>
Thunuguntla, SS; Subramanya, H; Kunnam, SR; Sanivaru Vijay, SR; Bingi, C; Kusanur, R; Schwarz, M; Arlt, M

> <Link to Ligand in BindingDB>
http://www.bindingdb.org/bind/chemsearch/marvin/MolStructure.jsp?monomerid=155398

> <Link to Ligand-Target Pair in BindingDB>
http://www.bindingdb.org/jsp/dbsearch/PrimarySearch_ki.jsp?energyterm=kJ/mole&tag=r21&monomerid=155398&enzyme=Dihydroorotate+dehydrogenase&column=ki&startPg=0&Increment=50&submit=Search

> <PubChem CID>
46945389

> <PubChem SID>
253658336

$$$$

  Mrv2115 07222212352D          

 25 27  0  0  0  0            999 V2000
    7.8592    1.2375    0.0000 O   0  0  0  0  0  0  0  0  0  0  0  0
    7.8592    0.4125    0.0000 C   0  0  0  0  0  0  0  0  0  0  0  0
    7.1447    0.0000    0.0000 C   0  0  0  0  0  0  0  0  0  0  0  0
    6.4302    0.4125    0.0000 N   0  0  0  0  0  0  0  0  0  0  0  0
    5.7158    0.0000    0.0000 C   0  0  0  0  0  0  0  0  0  0  0  0
    5.7158   -0.8250    0.0000 O   0  0  0  0  0  0  0  0  0  0  0  0
    5.0013    0.4125    0.0000 C   0  0  0  0  0  0  0  0  0  0  0  0
    4.2868    0.0000    0.0000 C   0  0  0  0  0  0  0  0  0  0  0  0
    3.5724    0.4125    0.0000 C   0  0  0  0  0  0  0  0  0  0  0  0
    3.5724    1.2375    0.0000 C   0  0  0  0  0  0  0  0  0  0  0  0
    2.8579    1.6500    0.0000 Cl  0  0  0  0  0  0  0  0  0  0  0  0
    4.2868    1.6500    0.0000 C   0  0  0  0  0  0  0  0  0  0  0  0
    4.2868    2.4750    0.0000 Cl  0  0  0  0  0  0  0  0  0  0  0  0
    5.0013    1.2375    0.0000 C   0  0  0  0  0  0  0  0  0  0  0  0
    8.5737    0.0000    0.0000 N   0  0  0  0  0  0  0  0  0  0  0  0
    9.2881    0.4125    0.0000 C   0  0  0  0  0  0  0  0  0  0  0  0
    9.2881    1.2375    0.0000 C   0  0  0  0  0  0  0  0  0  0  0  0
   10.0026    1.6500    0.0000 C   0  0  0  0  0  0  0  0  0  0  0  0
   10.7171    1.2375    0.0000 C   0  0  0  0  0  0  0  0  0  0  0  0
   10.7171    0.4125    0.0000 C   0  0  0  0  0  0  0  0  0  0  0  0
   11.4315    0.0000    0.0000 C   0  0  0  0  0  0  0  0  0  0  0  0
   11.4315   -0.8250    0.0000 C   0  0  0  0  0  0  0  0  0  0  0  0
   10.7171   -1.2375    0.0000 C   0  0  0  0  0  0  0  0  0  0  0  0
   10.0026   -0.8250    0.0000 C   0  0  0  0  0  0  0  0  0  0  0  0
   10.0026    0.0000    0.0000 C   0  0  0  0  0  0  0  0  0  0  0  0
  1  2  2  0  0  0  0
  2  3  1  0  0  0  0
  3  4  1  0  0  0  0
  4  5  1  0  0  0  0
  5  6  2  0  0  0  0
  5  7  1  0  0  0  0
  7  8  4  0  0  0  0
  8  9  4  0  0  0  0
  9 10  4  0  0  0  0
 10 11  1  0  0  0  0
 10 12  4  0  0  0  0
 12 13  1  0  0  0  0
 12 14  4  0  0  0  0
  7 14  4  0  0  0  0
  2 15  1  0  0  0  0
 15 16  1  0  0  0  0
 16 17  1  0  0  0  0
 17 18  1  0  0  0  0
 18 19  1  0  0  0  0
 19 20  1  0  0  0  0
 20 21  4  0  0  0  0
 21 22  4  0  0  0  0
 22 23  4  0  0  0  0
 23 24  4  0  0  0  0
 24 25  4  0  0  0  0
 20 25  4  0  0  0  0
 16 25  1  0  0  0  0
M  END
> <IC50(uM)>
20.0

> <Outcome>
0.0

> <BindingDB ID>
50527785

> <BindingDB MonomerID>
50201629

> <BindingDB Ligand Name>
CHEMBL3184312

> <Curation/DataSource>
ChEMBL

> <Article DOI>
10.1021/acsmedchemlett.6b00316

> <PMID>
27994748

> <Patent Number>
?

> <Authors>
Lewis, TA; Sykes, DB; Law, JM; Mu??oz, B; Rustiguel, JK; Nonato, MC; Scadden, DT; Schreiber, SL

> <Link to Ligand in BindingDB>
http://www.bindingdb.org/bind/chemsearch/marvin/MolStructure.jsp?monomerid=50201629

> <Link to Ligand-Target Pair in BindingDB>
http://www.bindingdb.org/jsp/dbsearch/PrimarySearch_ki.jsp?energyterm=kJ/mole&tag=r21&monomerid=50201629&enzyme=Dihydroorotate+dehydrogenase&column=ki&startPg=0&Increment=50&submit=Search

> <PubChem CID>
33839743

> <PubChem SID>
375979417

$$$$

  Mrv2115 07222212352D          

 29 31  0  0  0  0            999 V2000
   -1.4289   12.1286    0.0000 C   0  0  0  0  0  0  0  0  0  0  0  0
   -0.7145   11.7161    0.0000 O   0  0  0  0  0  0  0  0  0  0  0  0
   -0.7145   10.8911    0.0000 C   0  0  0  0  0  0  0  0  0  0  0  0
   -0.0000   10.4786    0.0000 C   0  0  0  0  0  0  0  0  0  0  0  0
   -0.0000    9.6536    0.0000 C   0  0  0  0  0  0  0  0  0  0  0  0
   -0.7145    9.2411    0.0000 C   0  0  0  0  0  0  0  0  0  0  0  0
   -0.7145    8.4161    0.0000 C   0  0  0  0  0  0  0  0  0  0  0  0
   -0.0000    8.0036    0.0000 C   0  0  0  0  0  0  0  0  0  0  0  0
   -0.0000    7.1786    0.0000 C   0  0  0  0  0  0  0  0  0  0  0  0
    0.7145    6.7661    0.0000 F   0  0  0  0  0  0  0  0  0  0  0  0
   -0.7145    6.7661    0.0000 C   0  0  0  0  0  0  0  0  0  0  0  0
   -0.7145    5.9411    0.0000 N   0  0  0  0  0  0  0  0  0  0  0  0
   -0.0000    5.5286    0.0000 C   0  0  0  0  0  0  0  0  0  0  0  0
    0.7145    5.9411    0.0000 O   0  0  0  0  0  0  0  0  0  0  0  0
   -0.0000    4.7036    0.0000 C   0  0  0  0  0  0  0  0  0  0  0  0
    0.6674    4.2187    0.0000 C   0  0  0  0  0  0  0  0  0  0  0  0
    1.4521    4.4736    0.0000 C   0  0  0  0  0  0  0  0  0  0  0  0
    1.6236    5.2806    0.0000 O   0  0  0  0  0  0  0  0  0  0  0  0
    2.0652    3.9216    0.0000 O   0  0  0  0  0  0  0  0  0  0  0  0
    0.4125    3.4340    0.0000 C   0  0  0  0  0  0  0  0  0  0  0  0
   -0.4125    3.4340    0.0000 C   0  0  0  0  0  0  0  0  0  0  0  0
   -0.6674    4.2187    0.0000 C   0  0  0  0  0  0  0  0  0  0  0  0
   -1.4289    7.1786    0.0000 C   0  0  0  0  0  0  0  0  0  0  0  0
   -2.1434    6.7661    0.0000 F   0  0  0  0  0  0  0  0  0  0  0  0
   -1.4289    8.0036    0.0000 C   0  0  0  0  0  0  0  0  0  0  0  0
   -1.4289    9.6536    0.0000 C   0  0  0  0  0  0  0  0  0  0  0  0
   -2.1434    9.2411    0.0000 O   0  0  0  0  0  0  0  0  0  0  0  0
   -2.8579    9.6536    0.0000 C   0  0  0  0  0  0  0  0  0  0  0  0
   -1.4289   10.4786    0.0000 C   0  0  0  0  0  0  0  0  0  0  0  0
  1  2  1  0  0  0  0
  2  3  1  0  0  0  0
  3  4  4  0  0  0  0
  4  5  4  0  0  0  0
  5  6  4  0  0  0  0
  6  7  1  0  0  0  0
  7  8  4  0  0  0  0
  8  9  4  0  0  0  0
  9 10  1  0  0  0  0
  9 11  4  0  0  0  0
 11 12  1  0  0  0  0
 12 13  1  0  0  0  0
 13 14  2  0  0  0  0
 13 15  1  0  0  0  0
 15 16  2  0  0  0  0
 16 17  1  0  0  0  0
 17 18  2  0  0  0  0
 17 19  1  0  0  0  0
 16 20  1  0  0  0  0
 20 21  1  0  0  0  0
 21 22  1  0  0  0  0
 15 22  1  0  0  0  0
 11 23  4  0  0  0  0
 23 24  1  0  0  0  0
 23 25  4  0  0  0  0
  7 25  4  0  0  0  0
  6 26  4  0  0  0  0
 26 27  1  0  0  0  0
 27 28  1  0  0  0  0
 26 29  4  0  0  0  0
  3 29  4  0  0  0  0
M  END
> <IC50(uM)>
0.09

> <Outcome>
1.0

> <BindingDB ID>
50251712

> <BindingDB MonomerID>
50137295

> <BindingDB Ligand Name>
2-(3,5-Difluoro-2',4'-dimethoxy-biphenyl-4-ylcarbamoyl)-cyclopent-1-enecarboxylic acid::CHEMBL345652

> <Curation/DataSource>
ChEMBL

> <Article DOI>
10.1016/j.bmcl.2003.10.021

> <PMID>
14684297

> <Patent Number>
?

> <Authors>
Leban, J; Saeb, W; Garcia, G; Baumgartner, R; Kramer, B

> <Link to Ligand in BindingDB>
http://www.bindingdb.org/bind/chemsearch/marvin/MolStructure.jsp?monomerid=50137295

> <Link to Ligand-Target Pair in BindingDB>
http://www.bindingdb.org/jsp/dbsearch/PrimarySearch_ki.jsp?energyterm=kJ/mole&tag=r21&monomerid=50137295&enzyme=Dihydroorotate+dehydrogenase&column=ki&startPg=0&Increment=50&submit=Search

> <PubChem CID>
21084734

> <PubChem SID>
104027461

$$$$

  Mrv2115 07222212352D          

 36 39  0  0  0  0            999 V2000
   -4.3409    1.4455    0.0000 C   0  0  0  0  0  0  0  0  0  0  0  0
   -5.1659    1.4455    0.0000 O   0  0  0  0  0  0  0  0  0  0  0  0
   -5.5784    0.7310    0.0000 C   0  0  0  0  0  0  0  0  0  0  0  0
   -6.4034    0.7310    0.0000 N   0  0  0  0  0  0  0  0  0  0  0  0
   -6.8159    0.0165    0.0000 C   0  0  0  0  0  0  0  0  0  0  0  0
   -6.4034   -0.6979    0.0000 C   0  0  0  0  0  0  0  0  0  0  0  0
   -5.5784   -0.6979    0.0000 C   0  0  0  0  0  0  0  0  0  0  0  0
   -5.1659   -1.4124    0.0000 C   0  0  0  0  0  0  0  0  0  0  0  0
   -5.1659    0.0165    0.0000 C   0  0  0  0  0  0  0  0  0  0  0  0
   -4.3409    0.0165    0.0000 N   0  0  0  0  0  0  0  0  0  0  0  0
   -3.9284   -0.6979    0.0000 C   0  0  0  0  0  0  0  0  0  0  0  0
   -4.3409   -1.4124    0.0000 O   0  0  0  0  0  0  0  0  0  0  0  0
   -3.1034   -0.6979    0.0000 C   0  0  0  0  0  0  0  0  0  0  0  0
   -2.6909    0.0165    0.0000 C   0  0  0  0  0  0  0  0  0  0  0  0
   -1.8659    0.0165    0.0000 C   0  0  0  0  0  0  0  0  0  0  0  0
   -1.4534    0.7310    0.0000 F   0  0  0  0  0  0  0  0  0  0  0  0
   -1.4534   -0.6979    0.0000 C   0  0  0  0  0  0  0  0  0  0  0  0
   -0.6284   -0.6979    0.0000 N   0  0  0  0  0  0  0  0  0  0  0  0
   -0.1435   -1.3654    0.0000 N   0  0  0  0  0  0  0  0  0  0  0  0
    0.6411   -1.1104    0.0000 C   0  0  0  0  0  0  0  0  0  0  0  0
    0.6411   -0.2854    0.0000 N   0  0  0  0  0  0  0  0  0  0  0  0
   -0.1435   -0.0305    0.0000 C   0  0  0  0  0  0  0  0  0  0  0  0
   -0.3984    0.7541    0.0000 O   0  0  0  0  0  0  0  0  0  0  0  0
    1.3556    0.1271    0.0000 C   0  0  0  0  0  0  0  0  0  0  0  0
    2.0701   -0.2854    0.0000 C   0  0  0  0  0  0  0  0  0  0  0  0
    2.0701   -1.1104    0.0000 C   0  0  0  0  0  0  0  0  0  0  0  0
    1.3556   -1.5229    0.0000 C   0  0  0  0  0  0  0  0  0  0  0  0
   -1.8659   -1.4124    0.0000 C   0  0  0  0  0  0  0  0  0  0  0  0
   -2.6909   -1.4124    0.0000 C   0  0  0  0  0  0  0  0  0  0  0  0
   -3.1034   -2.1269    0.0000 O   0  0  0  0  0  0  0  0  0  0  0  0
   -2.6909   -2.8414    0.0000 C   0  0  0  0  0  0  0  0  0  0  0  0
   -1.8659   -2.8414    0.0000 C   0  0  0  0  0  0  0  0  0  0  0  0
   -3.1034   -3.5558    0.0000 C   0  0  0  0  0  0  0  0  0  0  0  0
   -3.8179   -3.1433    0.0000 F   0  0  0  0  0  0  0  0  0  0  0  0
   -2.3890   -3.9683    0.0000 F   0  0  0  0  0  0  0  0  0  0  0  0
   -3.5159   -4.2703    0.0000 F   0  0  0  0  0  0  0  0  0  0  0  0
  1  2  1  0  0  0  0
  2  3  1  0  0  0  0
  3  4  4  0  0  0  0
  4  5  4  0  0  0  0
  5  6  4  0  0  0  0
  6  7  4  0  0  0  0
  7  8  1  0  0  0  0
  7  9  4  0  0  0  0
  3  9  4  0  0  0  0
  9 10  1  0  0  0  0
 10 11  1  0  0  0  0
 11 12  2  0  0  0  0
 11 13  1  0  0  0  0
 13 14  4  0  0  0  0
 14 15  4  0  0  0  0
 15 16  1  0  0  0  0
 15 17  4  0  0  0  0
 17 18  1  0  0  0  0
 18 19  4  0  0  0  0
 19 20  4  0  0  0  0
 20 21  4  0  0  0  0
 21 22  4  0  0  0  0
 18 22  4  0  0  0  0
 22 23  2  0  0  0  0
 21 24  1  0  0  0  0
 24 25  1  0  0  0  0
 25 26  1  0  0  0  0
 26 27  1  0  0  0  0
 20 27  1  0  0  0  0
 17 28  4  0  0  0  0
 28 29  4  0  0  0  0
 13 29  4  0  0  0  0
 29 30  1  0  0  0  0
 30 31  1  0  0  0  0
 31 32  1  0  0  0  0
 31 33  1  0  0  0  0
 33 34  1  0  0  0  0
 33 35  1  0  0  0  0
 33 36  1  0  0  0  0
M  END
> <IC50(uM)>
0.0178

> <Outcome>
1.0

> <BindingDB ID>
1020437

> <BindingDB MonomerID>
490388

> <BindingDB Ligand Name>
5-fluoro-N-(2-methoxy-4-methylpyridin-3-yl)-4-(3-oxo-5,6,7,8-tetrahydro[1,2,4]triazolo[4,3-a]pyridin-2(3H)-yl)-2-{[(2S)-1,1,1-trifluoropropan-2-yl]oxy}benzamide::US10968216, Example 56

> <Curation/DataSource>
US Patent

> <Article DOI>
?

> <PMID>
?

> <Patent Number>
US10968216

> <Authors>
Gradl, SN; Nguyen, D; Eis, K; Gunther, J; Stellfeld, T; Janzer, A; Christian, S; Mueller, T; Sheikh, SE; Zhou, HJ; Zhao, C; Sykes, DB; Ferrara, SJ; Liu, K; Herbert, SA; Merz, C; Niehues, M; Nising, CF; Schafer, M; Zimmermann, K; Knablein, J; Thede, K; Faupel, T

> <Link to Ligand in BindingDB>
http://www.bindingdb.org/bind/chemsearch/marvin/MolStructure.jsp?monomerid=490388

> <Link to Ligand-Target Pair in BindingDB>
http://www.bindingdb.org/jsp/dbsearch/PrimarySearch_ki.jsp?energyterm=kJ/mole&tag=r21&monomerid=490388&enzyme=Dihydroorotate+dehydrogenase&column=ki&startPg=0&Increment=50&submit=Search

> <PubChem CID>
134474339

> <PubChem SID>
447117115

$$$$

  Mrv2115 07222212352D          

 19 21  0  0  0  0            999 V2000
   -2.8579   -4.1250    0.0000 O   0  0  0  0  0  0  0  0  0  0  0  0
   -2.1434   -3.7125    0.0000 C   0  0  0  0  0  0  0  0  0  0  0  0
   -2.1434   -2.8875    0.0000 C   0  0  0  0  0  0  0  0  0  0  0  0
   -1.4289   -2.4750    0.0000 C   0  0  0  0  0  0  0  0  0  0  0  0
   -0.7145   -2.8875    0.0000 C   0  0  0  0  0  0  0  0  0  0  0  0
    0.0000   -2.4750    0.0000 N   0  0  0  0  0  0  0  0  0  0  0  0
    0.0000   -1.6500    0.0000 C   0  0  0  0  0  0  0  0  0  0  0  0
    0.7145   -1.2375    0.0000 C   0  0  0  0  0  0  0  0  0  0  0  0
    0.7145   -0.4125    0.0000 C   0  0  0  0  0  0  0  0  0  0  0  0
    1.4289    0.0000    0.0000 C   0  0  0  0  0  0  0  0  0  0  0  0
    2.1434   -0.4125    0.0000 C   0  0  0  0  0  0  0  0  0  0  0  0
    2.8579    0.0000    0.0000 C   0  0  0  0  0  0  0  0  0  0  0  0
    3.5724   -0.4125    0.0000 C   0  0  0  0  0  0  0  0  0  0  0  0
    3.5724   -1.2375    0.0000 C   0  0  0  0  0  0  0  0  0  0  0  0
    2.8579   -1.6500    0.0000 C   0  0  0  0  0  0  0  0  0  0  0  0
    2.1434   -1.2375    0.0000 C   0  0  0  0  0  0  0  0  0  0  0  0
    1.4289   -1.6500    0.0000 C   0  0  0  0  0  0  0  0  0  0  0  0
   -0.7145   -3.7125    0.0000 C   0  0  0  0  0  0  0  0  0  0  0  0
   -1.4289   -4.1250    0.0000 C   0  0  0  0  0  0  0  0  0  0  0  0
  1  2  1  0  0  0  0
  2  3  4  0  0  0  0
  3  4  4  0  0  0  0
  4  5  4  0  0  0  0
  5  6  1  0  0  0  0
  6  7  2  0  0  0  0
  7  8  1  0  0  0  0
  8  9  4  0  0  0  0
  9 10  4  0  0  0  0
 10 11  4  0  0  0  0
 11 12  4  0  0  0  0
 12 13  4  0  0  0  0
 13 14  4  0  0  0  0
 14 15  4  0  0  0  0
 15 16  4  0  0  0  0
 11 16  4  0  0  0  0
 16 17  4  0  0  0  0
  8 17  4  0  0  0  0
  5 18  4  0  0  0  0
 18 19  4  0  0  0  0
  2 19  4  0  0  0  0
M  END
> <IC50(uM)>
3.96

> <Outcome>
0.0

> <BindingDB ID>
50971936

> <BindingDB MonomerID>
50398640

> <BindingDB Ligand Name>
CHEMBL2178111

> <Curation/DataSource>
ChEMBL

> <Article DOI>
10.1021/jm300630p

> <PMID>
22984987

> <Patent Number>
?

> <Authors>
Diao, Y; Lu, W; Jin, H; Zhu, J; Han, L; Xu, M; Gao, R; Shen, X; Zhao, Z; Liu, X; Xu, Y; Huang, J; Li, H

> <Link to Ligand in BindingDB>
http://www.bindingdb.org/bind/chemsearch/marvin/MolStructure.jsp?monomerid=50398640

> <Link to Ligand-Target Pair in BindingDB>
http://www.bindingdb.org/jsp/dbsearch/PrimarySearch_ki.jsp?energyterm=kJ/mole&tag=r21&monomerid=50398640&enzyme=Dihydroorotate+dehydrogenase&column=ki&startPg=0&Increment=50&submit=Search

> <PubChem CID>
619026

> <PubChem SID>
163347664

$$$$

  Mrv2115 07222212352D          

 28 31  0  0  0  0            999 V2000
    0.0000   -1.6500    0.0000 C   0  0  0  0  0  0  0  0  0  0  0  0
    0.7145   -1.2375    0.0000 C   0  0  0  0  0  0  0  0  0  0  0  0
    0.7145   -0.4125    0.0000 C   0  0  0  0  0  0  0  0  0  0  0  0
    0.0000    0.0000    0.0000 C   0  0  0  0  0  0  0  0  0  0  0  0
   -0.7145   -0.4125    0.0000 C   0  0  0  0  0  0  0  0  0  0  0  0
   -1.4289    0.0000    0.0000 C   0  0  0  0  0  0  0  0  0  0  0  0
   -1.4289    0.8250    0.0000 C   0  0  0  0  0  0  0  0  0  0  0  0
   -2.1434    1.2375    0.0000 C   0  0  0  0  0  0  0  0  0  0  0  0
   -2.8579    0.8250    0.0000 C   0  0  0  0  0  0  0  0  0  0  0  0
   -3.5724    1.2375    0.0000 C   0  0  0  0  0  0  0  0  0  0  0  0
   -3.5724    2.0625    0.0000 C   0  0  0  0  0  0  0  0  0  0  0  0
   -2.8579    2.4750    0.0000 N   0  0  0  0  0  0  0  0  0  0  0  0
   -2.1434    2.0625    0.0000 C   0  0  0  0  0  0  0  0  0  0  0  0
   -1.4289    2.4750    0.0000 Cl  0  0  0  0  0  0  0  0  0  0  0  0
   -0.7145    1.2375    0.0000 C   0  0  0  0  0  0  0  0  0  0  0  0
    0.0000    0.8250    0.0000 C   0  0  0  0  0  0  0  0  0  0  0  0
    1.4289    0.0000    0.0000 N   0  0  0  0  0  0  0  0  0  0  0  0
    2.1434   -0.4125    0.0000 C   0  0  0  0  0  0  0  0  0  0  0  0
    2.8579    0.0000    0.0000 C   0  0  0  0  0  0  0  0  0  0  0  0
    3.5724   -0.4125    0.0000 C   0  0  0  0  0  0  0  0  0  0  0  0
    3.5724   -1.2375    0.0000 C   0  0  0  0  0  0  0  0  0  0  0  0
    4.2868   -1.6500    0.0000 F   0  0  0  0  0  0  0  0  0  0  0  0
    2.8579   -1.6500    0.0000 C   0  0  0  0  0  0  0  0  0  0  0  0
    2.1434   -1.2375    0.0000 C   0  0  0  0  0  0  0  0  0  0  0  0
    1.4289   -1.6500    0.0000 C   0  0  0  0  0  0  0  0  0  0  0  0
    1.4289   -2.4750    0.0000 C   0  0  0  0  0  0  0  0  0  0  0  0
    0.7145   -2.8875    0.0000 O   0  0  0  0  0  0  0  0  0  0  0  0
    2.1434   -2.8875    0.0000 O   0  0  0  0  0  0  0  0  0  0  0  0
  1  2  1  0  0  0  0
  2  3  4  0  0  0  0
  3  4  1  0  0  0  0
  4  5  4  0  0  0  0
  5  6  4  0  0  0  0
  6  7  4  0  0  0  0
  7  8  1  0  0  0  0
  8  9  4  0  0  0  0
  9 10  4  0  0  0  0
 10 11  4  0  0  0  0
 11 12  4  0  0  0  0
 12 13  4  0  0  0  0
  8 13  4  0  0  0  0
 13 14  1  0  0  0  0
  7 15  4  0  0  0  0
 15 16  4  0  0  0  0
  4 16  4  0  0  0  0
  3 17  4  0  0  0  0
 17 18  4  0  0  0  0
 18 19  4  0  0  0  0
 19 20  4  0  0  0  0
 20 21  4  0  0  0  0
 21 22  1  0  0  0  0
 21 23  4  0  0  0  0
 23 24  4  0  0  0  0
 18 24  4  0  0  0  0
 24 25  4  0  0  0  0
  2 25  4  0  0  0  0
 25 26  1  0  0  0  0
 26 27  2  0  0  0  0
 26 28  1  0  0  0  0
M  END
> <IC50(uM)>
0.009699999999999999

> <Outcome>
1.0

> <BindingDB ID>
51126192

> <BindingDB MonomerID>
50461878

> <BindingDB Ligand Name>
CHEMBL4228712

> <Curation/DataSource>
ChEMBL

> <Article DOI>
10.1021/acs.jmedchem.7b01862

> <PMID>
29727569

> <Patent Number>
?

> <Authors>
Madak, JT; Cuthbertson, CR; Miyata, Y; Tamura, S; Petrunak, EM; Stuckey, JA; Han, Y; He, M; Sun, D; Showalter, HD; Neamati, N

> <Link to Ligand in BindingDB>
http://www.bindingdb.org/bind/chemsearch/marvin/MolStructure.jsp?monomerid=50461878

> <Link to Ligand-Target Pair in BindingDB>
http://www.bindingdb.org/jsp/dbsearch/PrimarySearch_ki.jsp?energyterm=kJ/mole&tag=r21&monomerid=50461878&enzyme=Dihydroorotate+dehydrogenase&column=ki&startPg=0&Increment=50&submit=Search

> <PubChem CID>
145968438

> <PubChem SID>
433929143

$$$$

  Mrv2115 07222212352D          

 27 30  0  0  0  0            999 V2000
   -1.4289   -4.9500    0.0000 C   0  0  0  0  0  0  0  0  0  0  0  0
   -1.4289   -4.1250    0.0000 O   0  0  0  0  0  0  0  0  0  0  0  0
   -2.1434   -3.7125    0.0000 C   0  0  0  0  0  0  0  0  0  0  0  0
   -2.8579   -4.1250    0.0000 N   0  0  0  0  0  0  0  0  0  0  0  0
   -3.5724   -3.7125    0.0000 C   0  0  0  0  0  0  0  0  0  0  0  0
   -3.5724   -2.8875    0.0000 C   0  0  0  0  0  0  0  0  0  0  0  0
   -2.8579   -2.4750    0.0000 C   0  0  0  0  0  0  0  0  0  0  0  0
   -2.1434   -2.8875    0.0000 C   0  0  0  0  0  0  0  0  0  0  0  0
   -1.4289   -2.4750    0.0000 C   0  0  0  0  0  0  0  0  0  0  0  0
   -1.4289   -1.6500    0.0000 C   0  0  0  0  0  0  0  0  0  0  0  0
   -0.7145   -1.2375    0.0000 C   0  0  0  0  0  0  0  0  0  0  0  0
    0.0000   -1.6500    0.0000 C   0  0  0  0  0  0  0  0  0  0  0  0
    0.7145   -1.2375    0.0000 C   0  0  0  0  0  0  0  0  0  0  0  0
    0.7145   -0.4125    0.0000 C   0  0  0  0  0  0  0  0  0  0  0  0
    1.4289    0.0000    0.0000 C   0  0  0  0  0  0  0  0  0  0  0  0
    1.4289    0.8250    0.0000 C   0  0  0  0  0  0  0  0  0  0  0  0
    2.1434    1.2375    0.0000 O   0  0  0  0  0  0  0  0  0  0  0  0
    0.7145    1.2375    0.0000 O   0  0  0  0  0  0  0  0  0  0  0  0
    2.1434   -0.4125    0.0000 C   0  0  0  0  0  0  0  0  0  0  0  0
    2.8579    0.0000    0.0000 C   0  0  0  0  0  0  0  0  0  0  0  0
    3.5724   -0.4125    0.0000 C   0  0  0  0  0  0  0  0  0  0  0  0
    3.5724   -1.2375    0.0000 C   0  0  0  0  0  0  0  0  0  0  0  0
    2.8579   -1.6500    0.0000 C   0  0  0  0  0  0  0  0  0  0  0  0
    2.1434   -1.2375    0.0000 C   0  0  0  0  0  0  0  0  0  0  0  0
    1.4289   -1.6500    0.0000 N   0  0  0  0  0  0  0  0  0  0  0  0
    0.0000   -2.4750    0.0000 C   0  0  0  0  0  0  0  0  0  0  0  0
   -0.7145   -2.8875    0.0000 C   0  0  0  0  0  0  0  0  0  0  0  0
  1  2  1  0  0  0  0
  2  3  1  0  0  0  0
  3  4  4  0  0  0  0
  4  5  4  0  0  0  0
  5  6  4  0  0  0  0
  6  7  4  0  0  0  0
  7  8  4  0  0  0  0
  3  8  4  0  0  0  0
  8  9  1  0  0  0  0
  9 10  4  0  0  0  0
 10 11  4  0  0  0  0
 11 12  4  0  0  0  0
 12 13  1  0  0  0  0
 13 14  4  0  0  0  0
 14 15  4  0  0  0  0
 15 16  1  0  0  0  0
 16 17  2  0  0  0  0
 16 18  1  0  0  0  0
 15 19  4  0  0  0  0
 19 20  4  0  0  0  0
 20 21  4  0  0  0  0
 21 22  4  0  0  0  0
 22 23  4  0  0  0  0
 23 24  4  0  0  0  0
 19 24  4  0  0  0  0
 24 25  4  0  0  0  0
 13 25  4  0  0  0  0
 12 26  4  0  0  0  0
 26 27  4  0  0  0  0
  9 27  4  0  0  0  0
M  END
> <IC50(uM)>
0.165

> <Outcome>
1.0

> <BindingDB ID>
51126180

> <BindingDB MonomerID>
50461867

> <BindingDB Ligand Name>
CHEMBL4228376

> <Curation/DataSource>
ChEMBL

> <Article DOI>
10.1021/acs.jmedchem.7b01862

> <PMID>
29727569

> <Patent Number>
?

> <Authors>
Madak, JT; Cuthbertson, CR; Miyata, Y; Tamura, S; Petrunak, EM; Stuckey, JA; Han, Y; He, M; Sun, D; Showalter, HD; Neamati, N

> <Link to Ligand in BindingDB>
http://www.bindingdb.org/bind/chemsearch/marvin/MolStructure.jsp?monomerid=50461867

> <Link to Ligand-Target Pair in BindingDB>
http://www.bindingdb.org/jsp/dbsearch/PrimarySearch_ki.jsp?energyterm=kJ/mole&tag=r21&monomerid=50461867&enzyme=Dihydroorotate+dehydrogenase&column=ki&startPg=0&Increment=50&submit=Search

> <PubChem CID>
145969345

> <PubChem SID>
433929132

$$$$

  Mrv2115 07222212352D          

 24 27  0  0  0  0            999 V2000
   -1.6236   -1.8980    0.0000 O   0  0  0  0  0  0  0  0  0  0  0  0
   -1.4521   -2.7050    0.0000 C   0  0  0  0  0  0  0  0  0  0  0  0
   -2.0652   -3.2570    0.0000 N   0  0  0  0  0  0  0  0  0  0  0  0
   -1.8936   -4.0640    0.0000 C   0  0  0  0  0  0  0  0  0  0  0  0
   -2.5067   -4.6160    0.0000 C   0  0  0  0  0  0  0  0  0  0  0  0
   -2.7617   -5.4006    0.0000 C   0  0  0  0  0  0  0  0  0  0  0  0
   -3.3137   -4.7875    0.0000 C   0  0  0  0  0  0  0  0  0  0  0  0
   -0.6674   -2.9599    0.0000 C   0  0  0  0  0  0  0  0  0  0  0  0
   -0.4125   -3.7445    0.0000 C   0  0  0  0  0  0  0  0  0  0  0  0
   -0.8974   -4.4120    0.0000 O   0  0  0  0  0  0  0  0  0  0  0  0
    0.4125   -3.7445    0.0000 C   0  0  0  0  0  0  0  0  0  0  0  0
    0.6674   -2.9599    0.0000 S   0  0  0  0  0  0  0  0  0  0  0  0
    0.0000   -2.4750    0.0000 C   0  0  0  0  0  0  0  0  0  0  0  0
    0.0000   -1.6500    0.0000 N   0  0  0  0  0  0  0  0  0  0  0  0
    0.7145   -1.2375    0.0000 C   0  0  0  0  0  0  0  0  0  0  0  0
    0.7145   -0.4125    0.0000 C   0  0  0  0  0  0  0  0  0  0  0  0
    1.4289    0.0000    0.0000 C   0  0  0  0  0  0  0  0  0  0  0  0
    2.1434   -0.4125    0.0000 C   0  0  0  0  0  0  0  0  0  0  0  0
    2.8579    0.0000    0.0000 C   0  0  0  0  0  0  0  0  0  0  0  0
    3.5724   -0.4125    0.0000 C   0  0  0  0  0  0  0  0  0  0  0  0
    3.5724   -1.2375    0.0000 C   0  0  0  0  0  0  0  0  0  0  0  0
    2.8579   -1.6500    0.0000 C   0  0  0  0  0  0  0  0  0  0  0  0
    2.1434   -1.2375    0.0000 C   0  0  0  0  0  0  0  0  0  0  0  0
    1.4289   -1.6500    0.0000 C   0  0  0  0  0  0  0  0  0  0  0  0
  1  2  2  0  0  0  0
  2  3  1  0  0  0  0
  3  4  1  0  0  0  0
  4  5  1  0  0  0  0
  5  6  1  0  0  0  0
  6  7  1  0  0  0  0
  5  7  1  0  0  0  0
  2  8  1  0  0  0  0
  8  9  4  0  0  0  0
  9 10  1  0  0  0  0
  9 11  4  0  0  0  0
 11 12  4  0  0  0  0
 12 13  4  0  0  0  0
  8 13  4  0  0  0  0
 13 14  1  0  0  0  0
 14 15  1  0  0  0  0
 15 16  4  0  0  0  0
 16 17  4  0  0  0  0
 17 18  4  0  0  0  0
 18 19  4  0  0  0  0
 19 20  4  0  0  0  0
 20 21  4  0  0  0  0
 21 22  4  0  0  0  0
 22 23  4  0  0  0  0
 18 23  4  0  0  0  0
 23 24  4  0  0  0  0
 15 24  4  0  0  0  0
M  END
> <IC50(uM)>
50.0

> <Outcome>
0.0

> <BindingDB ID>
51079146

> <BindingDB MonomerID>
50441254

> <BindingDB Ligand Name>
CHEMBL2431495

> <Curation/DataSource>
ChEMBL

> <Article DOI>
10.1021/jm400938g

> <PMID>
24073986

> <Patent Number>
?

> <Authors>
Xu, M; Zhu, J; Diao, Y; Zhou, H; Ren, X; Sun, D; Huang, J; Han, D; Zhao, Z; Zhu, L; Xu, Y; Li, H

> <Link to Ligand in BindingDB>
http://www.bindingdb.org/bind/chemsearch/marvin/MolStructure.jsp?monomerid=50441254

> <Link to Ligand-Target Pair in BindingDB>
http://www.bindingdb.org/jsp/dbsearch/PrimarySearch_ki.jsp?energyterm=kJ/mole&tag=r21&monomerid=50441254&enzyme=Dihydroorotate+dehydrogenase&column=ki&startPg=0&Increment=50&submit=Search

> <PubChem CID>
91898815

> <PubChem SID>
175453571

$$$$

  Mrv2115 07222212352D          

 22 25  0  0  0  0            999 V2000
    1.9457   -4.4410    0.0000 O   0  0  0  0  0  0  0  0  0  0  0  0
    1.1387   -4.2695    0.0000 C   0  0  0  0  0  0  0  0  0  0  0  0
    0.5867   -4.8826    0.0000 N   0  0  0  0  0  0  0  0  0  0  0  0
    0.8416   -5.6672    0.0000 C   0  0  0  0  0  0  0  0  0  0  0  0
    1.6262   -5.9222    0.0000 C   0  0  0  0  0  0  0  0  0  0  0  0
    1.6262   -6.7472    0.0000 C   0  0  0  0  0  0  0  0  0  0  0  0
    0.8416   -7.0021    0.0000 C   0  0  0  0  0  0  0  0  0  0  0  0
    0.3567   -6.3347    0.0000 C   0  0  0  0  0  0  0  0  0  0  0  0
    0.8838   -3.4849    0.0000 C   0  0  0  0  0  0  0  0  0  0  0  0
    0.0992   -3.2299    0.0000 C   0  0  0  0  0  0  0  0  0  0  0  0
    0.0992   -2.4049    0.0000 C   0  0  0  0  0  0  0  0  0  0  0  0
    0.8838   -2.1500    0.0000 C   0  0  0  0  0  0  0  0  0  0  0  0
    1.1387   -1.3654    0.0000 N   0  0  0  0  0  0  0  0  0  0  0  0
    0.6538   -0.6979    0.0000 C   0  0  0  0  0  0  0  0  0  0  0  0
    1.1387   -0.0305    0.0000 N   0  0  0  0  0  0  0  0  0  0  0  0
    1.9233   -0.2854    0.0000 C   0  0  0  0  0  0  0  0  0  0  0  0
    2.6378    0.1271    0.0000 C   0  0  0  0  0  0  0  0  0  0  0  0
    3.3523   -0.2854    0.0000 C   0  0  0  0  0  0  0  0  0  0  0  0
    3.3523   -1.1104    0.0000 C   0  0  0  0  0  0  0  0  0  0  0  0
    2.6378   -1.5229    0.0000 C   0  0  0  0  0  0  0  0  0  0  0  0
    1.9233   -1.1104    0.0000 C   0  0  0  0  0  0  0  0  0  0  0  0
    1.3687   -2.8174    0.0000 S   0  0  0  0  0  0  0  0  0  0  0  0
  1  2  2  0  0  0  0
  2  3  1  0  0  0  0
  3  4  1  0  0  0  0
  4  5  1  0  0  0  0
  5  6  1  0  0  0  0
  6  7  1  0  0  0  0
  7  8  1  0  0  0  0
  4  8  1  0  0  0  0
  2  9  1  0  0  0  0
  9 10  4  0  0  0  0
 10 11  4  0  0  0  0
 11 12  4  0  0  0  0
 12 13  1  0  0  0  0
 13 14  4  0  0  0  0
 14 15  4  0  0  0  0
 15 16  4  0  0  0  0
 16 17  4  0  0  0  0
 17 18  4  0  0  0  0
 18 19  4  0  0  0  0
 19 20  4  0  0  0  0
 20 21  4  0  0  0  0
 16 21  4  0  0  0  0
 13 21  4  0  0  0  0
 12 22  4  0  0  0  0
  9 22  4  0  0  0  0
M  END
> <IC50(uM)>
30.0

> <Outcome>
0.0

> <BindingDB ID>
50924663

> <BindingDB MonomerID>
50379145

> <BindingDB Ligand Name>
CHEMBL2012827::US8703811, 35

> <Curation/DataSource>
ChEMBL

> <Article DOI>
10.1021/ml200143c

> <PMID>
24900364

> <Patent Number>
?

> <Authors>
Skerlj, RT; Bastos, CM; Booker, ML; Kramer, ML; Barker, RH; Celatka, CA; Munoz, B; Sidhu, AB; Cortese, JF; Wittlin, S; Papastogiannidis, P; Angulo-Barturen, I; Jimenez-Diaz, MB; Sybertz, E

> <Link to Ligand in BindingDB>
http://www.bindingdb.org/bind/chemsearch/marvin/MolStructure.jsp?monomerid=50379145

> <Link to Ligand-Target Pair in BindingDB>
http://www.bindingdb.org/jsp/dbsearch/PrimarySearch_ki.jsp?energyterm=kJ/mole&tag=r21&monomerid=50379145&enzyme=Dihydroorotate+dehydrogenase&column=ki&startPg=0&Increment=50&submit=Search

> <PubChem CID>
58284909

> <PubChem SID>
160858228

$$$$

  Mrv2115 07222212352D          

 30 34  0  0  0  0            999 V2000
    3.3523   -0.2854    0.0000 O   0  0  0  0  0  0  0  0  0  0  0  0
    3.3523   -1.1104    0.0000 C   0  0  0  0  0  0  0  0  0  0  0  0
    4.0668   -1.5229    0.0000 C   0  0  0  0  0  0  0  0  0  0  0  0
    4.7812   -1.1104    0.0000 C   0  0  0  0  0  0  0  0  0  0  0  0
    5.4957   -1.5229    0.0000 C   0  0  0  0  0  0  0  0  0  0  0  0
    5.4957   -2.3479    0.0000 C   0  0  0  0  0  0  0  0  0  0  0  0
    4.7812   -2.7604    0.0000 C   0  0  0  0  0  0  0  0  0  0  0  0
    4.0668   -2.3479    0.0000 C   0  0  0  0  0  0  0  0  0  0  0  0
    3.3523   -2.7604    0.0000 C   0  0  0  0  0  0  0  0  0  0  0  0
    3.3523   -3.5854    0.0000 O   0  0  0  0  0  0  0  0  0  0  0  0
    2.6378   -2.3479    0.0000 C   0  0  0  0  0  0  0  0  0  0  0  0
    2.6378   -1.5229    0.0000 C   0  0  0  0  0  0  0  0  0  0  0  0
    1.8532   -1.2680    0.0000 N   0  0  0  0  0  0  0  0  0  0  0  0
    1.3683   -1.9354    0.0000 N   0  0  0  0  0  0  0  0  0  0  0  0
    1.8532   -2.6029    0.0000 N   0  0  0  0  0  0  0  0  0  0  0  0
    1.5983   -3.3875    0.0000 C   0  0  0  0  0  0  0  0  0  0  0  0
    2.1503   -4.0006    0.0000 C   0  0  0  0  0  0  0  0  0  0  0  0
    1.8953   -4.7852    0.0000 C   0  0  0  0  0  0  0  0  0  0  0  0
    2.4474   -5.3983    0.0000 F   0  0  0  0  0  0  0  0  0  0  0  0
    1.0884   -4.9567    0.0000 C   0  0  0  0  0  0  0  0  0  0  0  0
    0.8334   -5.7414    0.0000 C   0  0  0  0  0  0  0  0  0  0  0  0
    1.3855   -6.3545    0.0000 C   0  0  0  0  0  0  0  0  0  0  0  0
    1.1305   -7.1391    0.0000 C   0  0  0  0  0  0  0  0  0  0  0  0
    0.3236   -7.3106    0.0000 C   0  0  0  0  0  0  0  0  0  0  0  0
   -0.2285   -6.6975    0.0000 C   0  0  0  0  0  0  0  0  0  0  0  0
    0.0265   -5.9129    0.0000 C   0  0  0  0  0  0  0  0  0  0  0  0
   -0.5256   -5.2998    0.0000 F   0  0  0  0  0  0  0  0  0  0  0  0
    0.5363   -4.3437    0.0000 C   0  0  0  0  0  0  0  0  0  0  0  0
   -0.2706   -4.5152    0.0000 F   0  0  0  0  0  0  0  0  0  0  0  0
    0.7913   -3.5590    0.0000 C   0  0  0  0  0  0  0  0  0  0  0  0
  1  2  1  0  0  0  0
  2  3  1  0  0  0  0
  3  4  4  0  0  0  0
  4  5  4  0  0  0  0
  5  6  4  0  0  0  0
  6  7  4  0  0  0  0
  7  8  4  0  0  0  0
  3  8  4  0  0  0  0
  8  9  1  0  0  0  0
  9 10  1  0  0  0  0
  9 11  1  0  0  0  0
 11 12  4  0  0  0  0
  2 12  1  0  0  0  0
 12 13  4  0  0  0  0
 13 14  4  0  0  0  0
 14 15  4  0  0  0  0
 11 15  4  0  0  0  0
 15 16  1  0  0  0  0
 16 17  4  0  0  0  0
 17 18  4  0  0  0  0
 18 19  1  0  0  0  0
 18 20  4  0  0  0  0
 20 21  1  0  0  0  0
 21 22  4  0  0  0  0
 22 23  4  0  0  0  0
 23 24  4  0  0  0  0
 24 25  4  0  0  0  0
 25 26  4  0  0  0  0
 21 26  4  0  0  0  0
 26 27  1  0  0  0  0
 20 28  4  0  0  0  0
 28 29  1  0  0  0  0
 28 30  4  0  0  0  0
 16 30  4  0  0  0  0
M  END
> <IC50(uM)>
0.0050999999999999995

> <Outcome>
1.0

> <BindingDB ID>
51338216

> <BindingDB MonomerID>
50541690

> <BindingDB Ligand Name>
CHEMBL4639751

> <Curation/DataSource>
ChEMBL

> <Article DOI>
10.1021/acs.jmedchem.0c00512

> <PMID>
32496056

> <Patent Number>
?

> <Authors>
Zuo, Z; Liu, X; Qian, X; Zeng, T; Sang, N; Liu, H; Zhou, Y; Tao, L; Zhou, X; Su, N; Yu, Y; Chen, Q; Luo, Y; Zhao, Y

> <Link to Ligand in BindingDB>
http://www.bindingdb.org/bind/chemsearch/marvin/MolStructure.jsp?monomerid=50541690

> <Link to Ligand-Target Pair in BindingDB>
http://www.bindingdb.org/jsp/dbsearch/PrimarySearch_ki.jsp?energyterm=kJ/mole&tag=r21&monomerid=50541690&enzyme=Dihydroorotate+dehydrogenase&column=ki&startPg=0&Increment=50&submit=Search

> <PubChem CID>
156013667

> <PubChem SID>
442143253

$$$$

  Mrv2115 07222212352D          

 33 35  0  0  0  0            999 V2000
    2.1434   -3.7125    0.0000 C   0  0  0  0  0  0  0  0  0  0  0  0
    2.8579   -4.1250    0.0000 C   0  0  0  0  0  0  0  0  0  0  0  0
    3.5724   -3.7125    0.0000 C   0  0  0  0  0  0  0  0  0  0  0  0
    4.2868   -4.1250    0.0000 C   0  0  0  0  0  0  0  0  0  0  0  0
    4.2868   -4.9500    0.0000 C   0  0  0  0  0  0  0  0  0  0  0  0
    5.0013   -3.7125    0.0000 O   0  0  0  0  0  0  0  0  0  0  0  0
    5.0013   -2.8875    0.0000 C   0  0  0  0  0  0  0  0  0  0  0  0
    4.2868   -2.4750    0.0000 C   0  0  0  0  0  0  0  0  0  0  0  0
    4.2868   -1.6500    0.0000 C   0  0  0  0  0  0  0  0  0  0  0  0
    3.5724   -1.2375    0.0000 N   0  0  0  0  0  0  0  0  0  0  0  0
    2.8187   -1.5731    0.0000 N   0  0  0  0  0  0  0  0  0  0  0  0
    2.2666   -0.9600    0.0000 C   0  0  0  0  0  0  0  0  0  0  0  0
    1.4462   -1.0462    0.0000 C   0  0  0  0  0  0  0  0  0  0  0  0
    1.1106   -1.7999    0.0000 C   0  0  0  0  0  0  0  0  0  0  0  0
    2.6791   -0.2455    0.0000 N   0  0  0  0  0  0  0  0  0  0  0  0
    2.3436    0.5082    0.0000 C   0  0  0  0  0  0  0  0  0  0  0  0
    3.4861   -0.4170    0.0000 C   0  0  0  0  0  0  0  0  0  0  0  0
    4.0992    0.1350    0.0000 O   0  0  0  0  0  0  0  0  0  0  0  0
    5.0013   -1.2375    0.0000 C   0  0  0  0  0  0  0  0  0  0  0  0
    5.0013   -0.4125    0.0000 F   0  0  0  0  0  0  0  0  0  0  0  0
    5.7158   -1.6500    0.0000 C   0  0  0  0  0  0  0  0  0  0  0  0
    5.7158   -2.4750    0.0000 C   0  0  0  0  0  0  0  0  0  0  0  0
    6.4302   -2.8875    0.0000 C   0  0  0  0  0  0  0  0  0  0  0  0
    6.4302   -3.7125    0.0000 O   0  0  0  0  0  0  0  0  0  0  0  0
    7.1447   -2.4750    0.0000 N   0  0  0  0  0  0  0  0  0  0  0  0
    7.8592   -2.8875    0.0000 C   0  0  0  0  0  0  0  0  0  0  0  0
    8.5737   -2.4750    0.0000 C   0  0  0  0  0  0  0  0  0  0  0  0
    8.5737   -1.6500    0.0000 C   0  0  0  0  0  0  0  0  0  0  0  0
    9.2881   -2.8875    0.0000 C   0  0  0  0  0  0  0  0  0  0  0  0
    9.2881   -3.7125    0.0000 C   0  0  0  0  0  0  0  0  0  0  0  0
    8.5737   -4.1250    0.0000 C   0  0  0  0  0  0  0  0  0  0  0  0
    7.8592   -3.7125    0.0000 C   0  0  0  0  0  0  0  0  0  0  0  0
    7.1447   -4.1250    0.0000 N   0  0  0  0  0  0  0  0  0  0  0  0
  1  2  2  0  0  0  0
  2  3  1  0  0  0  0
  3  4  1  0  0  0  0
  4  5  1  0  0  0  0
  4  6  1  0  0  0  0
  6  7  1  0  0  0  0
  7  8  4  0  0  0  0
  8  9  4  0  0  0  0
  9 10  1  0  0  0  0
 10 11  4  0  0  0  0
 11 12  4  0  0  0  0
 12 13  1  0  0  0  0
 13 14  1  0  0  0  0
 12 15  4  0  0  0  0
 15 16  1  0  0  0  0
 15 17  4  0  0  0  0
 10 17  4  0  0  0  0
 17 18  2  0  0  0  0
  9 19  4  0  0  0  0
 19 20  1  0  0  0  0
 19 21  4  0  0  0  0
 21 22  4  0  0  0  0
  7 22  4  0  0  0  0
 22 23  1  0  0  0  0
 23 24  2  0  0  0  0
 23 25  1  0  0  0  0
 25 26  1  0  0  0  0
 26 27  4  0  0  0  0
 27 28  1  0  0  0  0
 27 29  4  0  0  0  0
 29 30  4  0  0  0  0
 30 31  4  0  0  0  0
 31 32  4  0  0  0  0
 26 32  4  0  0  0  0
 32 33  1  0  0  0  0
M  END
> <IC50(uM)>
0.867

> <Outcome>
1.0

> <BindingDB ID>
972545; 1098699

> <BindingDB MonomerID>
470419

> <BindingDB Ligand Name>
US10815215, Example 83; US10815215, Example 83::US11130745, Example 83

> <Curation/DataSource>
US Patent

> <Article DOI>
?

> <PMID>
?

> <Patent Number>
US10815215; US11130745

> <Authors>
Gradl, SN; Nguyen, D; Eis, K; Gunther, J; Stellfeld, T; Janzer, A; Christian, S; Muller, T; Sheikh, SE; Zhou, HJ; Zhao, C; Sykes, DB; Ferrara, SJ; Liu, K; Krober, M; Merz, C; Niehues, M; Schafer, M; Zimmermann, K; Nising, CF; Gradl, SN; Nguyen, D; Eis, K; Gunther, J; Stellfeld, T; Janzer, A; Christian, S; Muller, T; Sheikh, SE; Sykes, DB; Ferrara, SJ; Krober, M; Merz, C; Niehues, M; Schafer, M; Zimmermann, K; Nising, CF

> <Link to Ligand in BindingDB>
http://www.bindingdb.org/bind/chemsearch/marvin/MolStructure.jsp?monomerid=470419

> <Link to Ligand-Target Pair in BindingDB>
http://www.bindingdb.org/jsp/dbsearch/PrimarySearch_ki.jsp?energyterm=kJ/mole&tag=r21&monomerid=470419&enzyme=Dihydroorotate+dehydrogenase&column=ki&startPg=0&Increment=50&submit=Search

> <PubChem CID>
134470035

> <PubChem SID>
441609596

$$$$

  Mrv2115 07222212352D          

 29 31  0  0  0  0            999 V2000
   -3.3220   -6.0992    0.0000 C   0  0  0  0  0  0  0  0  0  0  0  0
   -2.6076   -6.5117    0.0000 C   0  0  0  0  0  0  0  0  0  0  0  0
   -1.8931   -6.0992    0.0000 C   0  0  0  0  0  0  0  0  0  0  0  0
   -1.1786   -6.5117    0.0000 C   0  0  0  0  0  0  0  0  0  0  0  0
   -0.4642   -6.0992    0.0000 O   0  0  0  0  0  0  0  0  0  0  0  0
    0.2503   -6.5117    0.0000 C   0  0  0  0  0  0  0  0  0  0  0  0
    0.2503   -7.3367    0.0000 O   0  0  0  0  0  0  0  0  0  0  0  0
    0.9648   -6.0992    0.0000 C   0  0  0  0  0  0  0  0  0  0  0  0
    0.9648   -5.2742    0.0000 C   0  0  0  0  0  0  0  0  0  0  0  0
    1.6793   -4.8617    0.0000 C   0  0  0  0  0  0  0  0  0  0  0  0
    2.3937   -5.2742    0.0000 C   0  0  0  0  0  0  0  0  0  0  0  0
    2.3937   -6.0992    0.0000 C   0  0  0  0  0  0  0  0  0  0  0  0
    1.6793   -6.5117    0.0000 C   0  0  0  0  0  0  0  0  0  0  0  0
    1.6793   -7.3367    0.0000 C   0  0  0  0  0  0  0  0  0  0  0  0
    0.9648   -7.7492    0.0000 N   0  0  0  0  0  0  0  0  0  0  0  0
    0.9648   -8.5742    0.0000 N   0  0  0  0  0  0  0  0  0  0  0  0
    0.2503   -8.9867    0.0000 C   0  0  0  0  0  0  0  0  0  0  0  0
    1.6793   -8.9867    0.0000 C   0  0  0  0  0  0  0  0  0  0  0  0
    2.4329   -8.6511    0.0000 N   0  0  0  0  0  0  0  0  0  0  0  0
    2.9850   -9.2642    0.0000 C   0  0  0  0  0  0  0  0  0  0  0  0
    3.8054   -9.1780    0.0000 C   0  0  0  0  0  0  0  0  0  0  0  0
    4.1410   -8.4243    0.0000 C   0  0  0  0  0  0  0  0  0  0  0  0
    4.9615   -8.3381    0.0000 C   0  0  0  0  0  0  0  0  0  0  0  0
    5.4464   -9.0055    0.0000 C   0  0  0  0  0  0  0  0  0  0  0  0
    5.1109   -9.7592    0.0000 C   0  0  0  0  0  0  0  0  0  0  0  0
    4.2904   -9.8454    0.0000 C   0  0  0  0  0  0  0  0  0  0  0  0
    3.9548  -10.5991    0.0000 Cl  0  0  0  0  0  0  0  0  0  0  0  0
    2.5725   -9.9787    0.0000 C   0  0  0  0  0  0  0  0  0  0  0  0
    1.7655   -9.8072    0.0000 S   0  0  0  0  0  0  0  0  0  0  0  0
  1  2  1  0  0  0  0
  2  3  1  0  0  0  0
  3  4  1  0  0  0  0
  4  5  1  0  0  0  0
  5  6  1  0  0  0  0
  6  7  2  0  0  0  0
  6  8  1  0  0  0  0
  8  9  4  0  0  0  0
  9 10  4  0  0  0  0
 10 11  4  0  0  0  0
 11 12  4  0  0  0  0
 12 13  4  0  0  0  0
  8 13  4  0  0  0  0
 13 14  1  0  0  0  0
 14 15  2  0  0  0  0
 15 16  1  0  0  0  0
 16 17  1  0  0  0  0
 16 18  1  0  0  0  0
 18 19  4  0  0  0  0
 19 20  4  0  0  0  0
 20 21  1  0  0  0  0
 21 22  4  0  0  0  0
 22 23  4  0  0  0  0
 23 24  4  0  0  0  0
 24 25  4  0  0  0  0
 25 26  4  0  0  0  0
 21 26  4  0  0  0  0
 26 27  1  0  0  0  0
 20 28  4  0  0  0  0
 28 29  4  0  0  0  0
 18 29  4  0  0  0  0
M  END
> <IC50(uM)>
50.0

> <Outcome>
0.0

> <BindingDB ID>
1001151

> <BindingDB MonomerID>
482837

> <BindingDB Ligand Name>
US10919869, No.  B4

> <Curation/DataSource>
US Patent

> <Article DOI>
?

> <PMID>
?

> <Patent Number>
US10919869

> <Authors>
Li, H; Xu, Y; Wang, R; Zhao, Z; Song, W; Xu, L

> <Link to Ligand in BindingDB>
http://www.bindingdb.org/bind/chemsearch/marvin/MolStructure.jsp?monomerid=482837

> <Link to Ligand-Target Pair in BindingDB>
http://www.bindingdb.org/jsp/dbsearch/PrimarySearch_ki.jsp?energyterm=kJ/mole&tag=r21&monomerid=482837&enzyme=Dihydroorotate+dehydrogenase&column=ki&startPg=0&Increment=50&submit=Search

> <PubChem CID>
132157889

> <PubChem SID>
443551977

$$$$

  Mrv2115 07222212352D          

 28 31  0  0  0  0            999 V2000
    4.0668    2.3479    0.0000 C   0  0  0  0  0  0  0  0  0  0  0  0
    3.3523    1.9354    0.0000 C   0  0  0  0  0  0  0  0  0  0  0  0
    3.3523    1.1104    0.0000 C   0  0  0  0  0  0  0  0  0  0  0  0
    2.6378    0.6979    0.0000 C   0  0  0  0  0  0  0  0  0  0  0  0
    2.6378   -0.1271    0.0000 C   0  0  0  0  0  0  0  0  0  0  0  0
    1.9233   -0.5396    0.0000 O   0  0  0  0  0  0  0  0  0  0  0  0
    3.3523   -0.5396    0.0000 O   0  0  0  0  0  0  0  0  0  0  0  0
    1.9233    1.1104    0.0000 C   0  0  0  0  0  0  0  0  0  0  0  0
    1.1387    0.8555    0.0000 N   0  0  0  0  0  0  0  0  0  0  0  0
    0.6538    1.5229    0.0000 C   0  0  0  0  0  0  0  0  0  0  0  0
   -0.1712    1.5229    0.0000 C   0  0  0  0  0  0  0  0  0  0  0  0
   -0.5837    0.8085    0.0000 C   0  0  0  0  0  0  0  0  0  0  0  0
   -1.4087    0.8085    0.0000 C   0  0  0  0  0  0  0  0  0  0  0  0
   -1.8212    1.5229    0.0000 C   0  0  0  0  0  0  0  0  0  0  0  0
   -2.6462    1.5229    0.0000 C   0  0  0  0  0  0  0  0  0  0  0  0
   -3.0587    0.8085    0.0000 C   0  0  0  0  0  0  0  0  0  0  0  0
   -3.8837    0.8085    0.0000 C   0  0  0  0  0  0  0  0  0  0  0  0
   -4.2962    1.5229    0.0000 C   0  0  0  0  0  0  0  0  0  0  0  0
   -5.1212    1.5229    0.0000 F   0  0  0  0  0  0  0  0  0  0  0  0
   -3.8837    2.2374    0.0000 C   0  0  0  0  0  0  0  0  0  0  0  0
   -3.0587    2.2374    0.0000 C   0  0  0  0  0  0  0  0  0  0  0  0
   -2.6462    2.9519    0.0000 F   0  0  0  0  0  0  0  0  0  0  0  0
   -1.4087    2.2374    0.0000 C   0  0  0  0  0  0  0  0  0  0  0  0
   -0.5837    2.2374    0.0000 C   0  0  0  0  0  0  0  0  0  0  0  0
   -0.1712    2.9519    0.0000 F   0  0  0  0  0  0  0  0  0  0  0  0
    1.1387    2.1904    0.0000 N   0  0  0  0  0  0  0  0  0  0  0  0
    1.9233    1.9354    0.0000 C   0  0  0  0  0  0  0  0  0  0  0  0
    2.6378    2.3479    0.0000 C   0  0  0  0  0  0  0  0  0  0  0  0
  1  2  1  0  0  0  0
  2  3  4  0  0  0  0
  3  4  4  0  0  0  0
  4  5  1  0  0  0  0
  5  6  2  0  0  0  0
  5  7  1  0  0  0  0
  4  8  4  0  0  0  0
  8  9  4  0  0  0  0
  9 10  4  0  0  0  0
 10 11  1  0  0  0  0
 11 12  4  0  0  0  0
 12 13  4  0  0  0  0
 13 14  4  0  0  0  0
 14 15  1  0  0  0  0
 15 16  4  0  0  0  0
 16 17  4  0  0  0  0
 17 18  4  0  0  0  0
 18 19  1  0  0  0  0
 18 20  4  0  0  0  0
 20 21  4  0  0  0  0
 15 21  4  0  0  0  0
 21 22  1  0  0  0  0
 14 23  4  0  0  0  0
 23 24  4  0  0  0  0
 11 24  4  0  0  0  0
 24 25  1  0  0  0  0
 10 26  4  0  0  0  0
 26 27  4  0  0  0  0
  8 27  4  0  0  0  0
 27 28  4  0  0  0  0
  2 28  4  0  0  0  0
M  STY  1   1 DAT
M  SAL   1  1   9
M  SDT   1 MRV_IMPLICIT_H                                        
M  SDD   1     0.5304   -0.4125    DR    ALL  0       0  
M  SED   1 IMPL_H1
M  END
> <IC50(uM)>
1.01

> <Outcome>
0.0

> <BindingDB ID>
297762

> <BindingDB MonomerID>
155418

> <BindingDB Ligand Name>
US9006454, I31

> <Curation/DataSource>
US Patent

> <Article DOI>
?

> <PMID>
?

> <Patent Number>
US9006454

> <Authors>
Thunuguntla, SS; Subramanya, H; Kunnam, SR; Sanivaru Vijay, SR; Bingi, C; Kusanur, R; Schwarz, M; Arlt, M

> <Link to Ligand in BindingDB>
http://www.bindingdb.org/bind/chemsearch/marvin/MolStructure.jsp?monomerid=155418

> <Link to Ligand-Target Pair in BindingDB>
http://www.bindingdb.org/jsp/dbsearch/PrimarySearch_ki.jsp?energyterm=kJ/mole&tag=r21&monomerid=155418&enzyme=Dihydroorotate+dehydrogenase&column=ki&startPg=0&Increment=50&submit=Search

> <PubChem CID>
46946190

> <PubChem SID>
253658355

$$$$

  Mrv2115 07222212352D          

 30 33  0  0  0  0            999 V2000
    4.0668    2.3479    0.0000 C   0  0  0  0  0  0  0  0  0  0  0  0
    3.3523    1.9354    0.0000 C   0  0  0  0  0  0  0  0  0  0  0  0
    3.3523    1.1104    0.0000 C   0  0  0  0  0  0  0  0  0  0  0  0
    2.6378    0.6979    0.0000 C   0  0  0  0  0  0  0  0  0  0  0  0
    2.6378   -0.1271    0.0000 C   0  0  0  0  0  0  0  0  0  0  0  0
    1.9233   -0.5396    0.0000 O   0  0  0  0  0  0  0  0  0  0  0  0
    3.3523   -0.5396    0.0000 O   0  0  0  0  0  0  0  0  0  0  0  0
    1.9233    1.1104    0.0000 C   0  0  0  0  0  0  0  0  0  0  0  0
    1.1387    0.8555    0.0000 N   0  0  0  0  0  0  0  0  0  0  0  0
    0.6538    1.5229    0.0000 C   0  0  0  0  0  0  0  0  0  0  0  0
   -0.1712    1.5229    0.0000 C   0  0  0  0  0  0  0  0  0  0  0  0
   -0.5837    0.8085    0.0000 C   0  0  0  0  0  0  0  0  0  0  0  0
   -0.1712    0.0940    0.0000 F   0  0  0  0  0  0  0  0  0  0  0  0
   -1.4087    0.8085    0.0000 C   0  0  0  0  0  0  0  0  0  0  0  0
   -1.8212    0.0940    0.0000 F   0  0  0  0  0  0  0  0  0  0  0  0
   -1.8212    1.5229    0.0000 C   0  0  0  0  0  0  0  0  0  0  0  0
   -2.6462    1.5229    0.0000 C   0  0  0  0  0  0  0  0  0  0  0  0
   -3.0587    0.8085    0.0000 C   0  0  0  0  0  0  0  0  0  0  0  0
   -3.8837    0.8085    0.0000 C   0  0  0  0  0  0  0  0  0  0  0  0
   -4.2962    1.5229    0.0000 C   0  0  0  0  0  0  0  0  0  0  0  0
   -5.1212    1.5229    0.0000 O   0  0  0  0  0  0  0  0  0  0  0  0
   -3.8837    2.2374    0.0000 C   0  0  0  0  0  0  0  0  0  0  0  0
   -3.0587    2.2374    0.0000 C   0  0  0  0  0  0  0  0  0  0  0  0
   -1.4087    2.2374    0.0000 C   0  0  0  0  0  0  0  0  0  0  0  0
   -1.8212    2.9519    0.0000 F   0  0  0  0  0  0  0  0  0  0  0  0
   -0.5837    2.2374    0.0000 C   0  0  0  0  0  0  0  0  0  0  0  0
   -0.1712    2.9519    0.0000 F   0  0  0  0  0  0  0  0  0  0  0  0
    1.1387    2.1904    0.0000 N   0  0  0  0  0  0  0  0  0  0  0  0
    1.9233    1.9354    0.0000 C   0  0  0  0  0  0  0  0  0  0  0  0
    2.6378    2.3479    0.0000 C   0  0  0  0  0  0  0  0  0  0  0  0
  1  2  1  0  0  0  0
  2  3  4  0  0  0  0
  3  4  4  0  0  0  0
  4  5  1  0  0  0  0
  5  6  2  0  0  0  0
  5  7  1  0  0  0  0
  4  8  4  0  0  0  0
  8  9  4  0  0  0  0
  9 10  4  0  0  0  0
 10 11  1  0  0  0  0
 11 12  4  0  0  0  0
 12 13  1  0  0  0  0
 12 14  4  0  0  0  0
 14 15  1  0  0  0  0
 14 16  4  0  0  0  0
 16 17  1  0  0  0  0
 17 18  4  0  0  0  0
 18 19  4  0  0  0  0
 19 20  4  0  0  0  0
 20 21  1  0  0  0  0
 20 22  4  0  0  0  0
 22 23  4  0  0  0  0
 17 23  4  0  0  0  0
 16 24  4  0  0  0  0
 24 25  1  0  0  0  0
 24 26  4  0  0  0  0
 11 26  4  0  0  0  0
 26 27  1  0  0  0  0
 10 28  4  0  0  0  0
 28 29  4  0  0  0  0
  8 29  4  0  0  0  0
 29 30  4  0  0  0  0
  2 30  4  0  0  0  0
M  STY  1   1 DAT
M  SAL   1  1   9
M  SDT   1 MRV_IMPLICIT_H                                        
M  SDD   1     0.5304   -0.4125    DR    ALL  0       0  
M  SED   1 IMPL_H1
M  END
> <IC50(uM)>
0.016

> <Outcome>
1.0

> <BindingDB ID>
297798

> <BindingDB MonomerID>
155454

> <BindingDB Ligand Name>
US9006454, I96

> <Curation/DataSource>
US Patent

> <Article DOI>
?

> <PMID>
?

> <Patent Number>
US9006454

> <Authors>
Thunuguntla, SS; Subramanya, H; Kunnam, SR; Sanivaru Vijay, SR; Bingi, C; Kusanur, R; Schwarz, M; Arlt, M

> <Link to Ligand in BindingDB>
http://www.bindingdb.org/bind/chemsearch/marvin/MolStructure.jsp?monomerid=155454

> <Link to Ligand-Target Pair in BindingDB>
http://www.bindingdb.org/jsp/dbsearch/PrimarySearch_ki.jsp?energyterm=kJ/mole&tag=r21&monomerid=155454&enzyme=Dihydroorotate+dehydrogenase&column=ki&startPg=0&Increment=50&submit=Search

> <PubChem CID>
88583078

> <PubChem SID>
253658391

$$$$

  Mrv2115 07222212352D          

 22 25  0  0  0  0            999 V2000
    0.9130   -0.8764    0.0000 N   0  0  0  0  0  0  0  0  0  0  0  0
    1.7200   -1.0479    0.0000 C   0  0  0  0  0  0  0  0  0  0  0  0
    2.2720   -0.4349    0.0000 N   0  0  0  0  0  0  0  0  0  0  0  0
    3.0790   -0.6064    0.0000 C   0  0  0  0  0  0  0  0  0  0  0  0
    3.7464   -0.1215    0.0000 C   0  0  0  0  0  0  0  0  0  0  0  0
    4.4139   -0.6064    0.0000 C   0  0  0  0  0  0  0  0  0  0  0  0
    5.2208   -0.4349    0.0000 C   0  0  0  0  0  0  0  0  0  0  0  0
    5.7729   -1.0479    0.0000 C   0  0  0  0  0  0  0  0  0  0  0  0
    5.5179   -1.8326    0.0000 C   0  0  0  0  0  0  0  0  0  0  0  0
    4.7110   -2.0041    0.0000 C   0  0  0  0  0  0  0  0  0  0  0  0
    4.1589   -1.3910    0.0000 C   0  0  0  0  0  0  0  0  0  0  0  0
    3.3339   -1.3910    0.0000 C   0  0  0  0  0  0  0  0  0  0  0  0
    2.7819   -2.0041    0.0000 C   0  0  0  0  0  0  0  0  0  0  0  0
    3.0368   -2.7887    0.0000 N   0  0  0  0  0  0  0  0  0  0  0  0
    2.4848   -3.4018    0.0000 C   0  0  0  0  0  0  0  0  0  0  0  0
    2.7397   -4.1864    0.0000 C   0  0  0  0  0  0  0  0  0  0  0  0
    2.1877   -4.7995    0.0000 C   0  0  0  0  0  0  0  0  0  0  0  0
    1.3807   -4.6280    0.0000 C   0  0  0  0  0  0  0  0  0  0  0  0
    0.8287   -5.2411    0.0000 Cl  0  0  0  0  0  0  0  0  0  0  0  0
    1.1258   -3.8434    0.0000 C   0  0  0  0  0  0  0  0  0  0  0  0
    1.6778   -3.2303    0.0000 C   0  0  0  0  0  0  0  0  0  0  0  0
    1.9749   -1.8326    0.0000 N   0  0  0  0  0  0  0  0  0  0  0  0
  1  2  1  0  0  0  0
  2  3  4  0  0  0  0
  3  4  4  0  0  0  0
  4  5  4  0  0  0  0
  5  6  4  0  0  0  0
  6  7  4  0  0  0  0
  7  8  4  0  0  0  0
  8  9  4  0  0  0  0
  9 10  4  0  0  0  0
 10 11  4  0  0  0  0
  6 11  4  0  0  0  0
 11 12  4  0  0  0  0
  4 12  1  0  0  0  0
 12 13  4  0  0  0  0
 13 14  1  0  0  0  0
 14 15  1  0  0  0  0
 15 16  4  0  0  0  0
 16 17  4  0  0  0  0
 17 18  4  0  0  0  0
 18 19  1  0  0  0  0
 18 20  4  0  0  0  0
 20 21  4  0  0  0  0
 15 21  4  0  0  0  0
 13 22  4  0  0  0  0
  2 22  4  0  0  0  0
M  STY  1   1 DAT
M  SAL   1  1  22
M  SDT   1 MRV_IMPLICIT_H                                        
M  SDD   1     0.5304   -0.4125    DR    ALL  0       0  
M  SED   1 IMPL_H1
M  END
> <IC50(uM)>
200.0

> <Outcome>
0.0

> <BindingDB ID>
50944652

> <BindingDB MonomerID>
50387410

> <BindingDB Ligand Name>
CHEMBL2047247

> <Curation/DataSource>
ChEMBL

> <Article DOI>
10.1016/j.bmc.2012.05.068

> <PMID>
22739090

> <Patent Number>
?

> <Authors>
Gangjee, A; Zhao, Y; Ihnat, MA; Thorpe, JE; Bailey-Downs, LC; Kisliuk, RL

> <Link to Ligand in BindingDB>
http://www.bindingdb.org/bind/chemsearch/marvin/MolStructure.jsp?monomerid=50387410

> <Link to Ligand-Target Pair in BindingDB>
http://www.bindingdb.org/jsp/dbsearch/PrimarySearch_ki.jsp?energyterm=kJ/mole&tag=r21&monomerid=50387410&enzyme=Dihydroorotate+dehydrogenase&column=ki&startPg=0&Increment=50&submit=Search

> <PubChem CID>
90818125

> <PubChem SID>
160866493

$$$$

  Mrv2115 07222212352D          

 28 30  0  0  0  0            999 V2000
   -3.5724    9.2411    0.0000 C   0  0  0  0  0  0  0  0  0  0  0  0
   -2.8579    9.6536    0.0000 C   0  0  0  0  0  0  0  0  0  0  0  0
   -2.1434    9.2411    0.0000 O   0  0  0  0  0  0  0  0  0  0  0  0
   -1.4289    9.6536    0.0000 C   0  0  0  0  0  0  0  0  0  0  0  0
   -1.4289   10.4786    0.0000 C   0  0  0  0  0  0  0  0  0  0  0  0
   -0.7145   10.8911    0.0000 C   0  0  0  0  0  0  0  0  0  0  0  0
    0.0000   10.4786    0.0000 C   0  0  0  0  0  0  0  0  0  0  0  0
    0.0000    9.6536    0.0000 C   0  0  0  0  0  0  0  0  0  0  0  0
   -0.7145    9.2411    0.0000 C   0  0  0  0  0  0  0  0  0  0  0  0
   -0.7145    8.4161    0.0000 C   0  0  0  0  0  0  0  0  0  0  0  0
    0.0000    8.0036    0.0000 C   0  0  0  0  0  0  0  0  0  0  0  0
    0.0000    7.1786    0.0000 C   0  0  0  0  0  0  0  0  0  0  0  0
    0.7145    6.7661    0.0000 F   0  0  0  0  0  0  0  0  0  0  0  0
   -0.7145    6.7661    0.0000 C   0  0  0  0  0  0  0  0  0  0  0  0
   -0.7145    5.9411    0.0000 N   0  0  0  0  0  0  0  0  0  0  0  0
    0.0000    5.5286    0.0000 C   0  0  0  0  0  0  0  0  0  0  0  0
    0.7145    5.9411    0.0000 O   0  0  0  0  0  0  0  0  0  0  0  0
   -0.0000    4.7036    0.0000 C   0  0  0  0  0  0  0  0  0  0  0  0
   -0.6674    4.2187    0.0000 C   0  0  0  0  0  0  0  0  0  0  0  0
   -0.4125    3.4340    0.0000 S   0  0  0  0  0  0  0  0  0  0  0  0
    0.4125    3.4340    0.0000 C   0  0  0  0  0  0  0  0  0  0  0  0
    0.6674    4.2187    0.0000 C   0  0  0  0  0  0  0  0  0  0  0  0
    1.4521    4.4736    0.0000 C   0  0  0  0  0  0  0  0  0  0  0  0
    1.6236    5.2806    0.0000 O   0  0  0  0  0  0  0  0  0  0  0  0
    2.0652    3.9216    0.0000 O   0  0  0  0  0  0  0  0  0  0  0  0
   -1.4289    7.1786    0.0000 C   0  0  0  0  0  0  0  0  0  0  0  0
   -2.1434    6.7661    0.0000 F   0  0  0  0  0  0  0  0  0  0  0  0
   -1.4289    8.0036    0.0000 C   0  0  0  0  0  0  0  0  0  0  0  0
  1  2  1  0  0  0  0
  2  3  1  0  0  0  0
  3  4  1  0  0  0  0
  4  5  4  0  0  0  0
  5  6  4  0  0  0  0
  6  7  4  0  0  0  0
  7  8  4  0  0  0  0
  8  9  4  0  0  0  0
  4  9  4  0  0  0  0
  9 10  1  0  0  0  0
 10 11  4  0  0  0  0
 11 12  4  0  0  0  0
 12 13  1  0  0  0  0
 12 14  4  0  0  0  0
 14 15  1  0  0  0  0
 15 16  1  0  0  0  0
 16 17  2  0  0  0  0
 16 18  1  0  0  0  0
 18 19  4  0  0  0  0
 19 20  4  0  0  0  0
 20 21  4  0  0  0  0
 21 22  4  0  0  0  0
 18 22  4  0  0  0  0
 22 23  1  0  0  0  0
 23 24  2  0  0  0  0
 23 25  1  0  0  0  0
 14 26  4  0  0  0  0
 26 27  1  0  0  0  0
 26 28  4  0  0  0  0
 10 28  4  0  0  0  0
M  END
> <IC50(uM)>
0.01

> <Outcome>
1.0

> <BindingDB ID>
29223

> <BindingDB MonomerID>
16120

> <BindingDB Ligand Name>
4-{[4-(2-ethoxyphenyl)-2,6-difluorophenyl]carbamoyl}thiophene-3-carboxylic acid::Biphenyl-4-ylcarbamoyl Thiophene Analog 11

> <Curation/DataSource>
Curated from the literature by BindingDB

> <Article DOI>
10.1016/j.bmcl.2005.10.011

> <PMID>
16246558

> <Patent Number>
?

> <Authors>
Leban, J; Kralik, M; Mies, J; Baumgartner, R; Gassen, M; Tasler, S

> <Link to Ligand in BindingDB>
http://www.bindingdb.org/bind/chemsearch/marvin/MolStructure.jsp?monomerid=16120

> <Link to Ligand-Target Pair in BindingDB>
http://www.bindingdb.org/jsp/dbsearch/PrimarySearch_ki.jsp?energyterm=kJ/mole&tag=r21&monomerid=16120&enzyme=Dihydroorotate+Dehydrogenase+%28DHODH%29&column=ki&startPg=0&Increment=50&submit=Search

> <PubChem CID>
23647303

> <PubChem SID>
46516379

$$$$

  Mrv2115 07222212352D          

 34 38  0  0  0  0            999 V2000
    4.0668    2.3479    0.0000 C   0  0  0  0  0  0  0  0  0  0  0  0
    3.3523    1.9354    0.0000 C   0  0  0  0  0  0  0  0  0  0  0  0
    3.3523    1.1104    0.0000 C   0  0  0  0  0  0  0  0  0  0  0  0
    2.6378    0.6979    0.0000 C   0  0  0  0  0  0  0  0  0  0  0  0
    2.6378   -0.1271    0.0000 C   0  0  0  0  0  0  0  0  0  0  0  0
    1.9233   -0.5396    0.0000 O   0  0  0  0  0  0  0  0  0  0  0  0
    3.3523   -0.5396    0.0000 O   0  0  0  0  0  0  0  0  0  0  0  0
    1.9233    1.1104    0.0000 C   0  0  0  0  0  0  0  0  0  0  0  0
    1.1387    0.8555    0.0000 N   0  0  0  0  0  0  0  0  0  0  0  0
    0.6538    1.5229    0.0000 C   0  0  0  0  0  0  0  0  0  0  0  0
   -0.1712    1.5229    0.0000 C   0  0  0  0  0  0  0  0  0  0  0  0
   -0.5837    0.8085    0.0000 C   0  0  0  0  0  0  0  0  0  0  0  0
   -1.4087    0.8085    0.0000 C   0  0  0  0  0  0  0  0  0  0  0  0
   -1.8212    1.5229    0.0000 C   0  0  0  0  0  0  0  0  0  0  0  0
   -2.6462    1.5229    0.0000 C   0  0  0  0  0  0  0  0  0  0  0  0
   -3.0587    0.8085    0.0000 C   0  0  0  0  0  0  0  0  0  0  0  0
   -3.8837    0.8085    0.0000 C   0  0  0  0  0  0  0  0  0  0  0  0
   -4.2962    1.5229    0.0000 C   0  0  0  0  0  0  0  0  0  0  0  0
   -5.1212    1.5229    0.0000 N   0  0  0  0  0  0  0  0  0  0  0  0
   -5.5337    0.8085    0.0000 C   0  0  0  0  0  0  0  0  0  0  0  0
   -5.1212    0.0940    0.0000 O   0  0  0  0  0  0  0  0  0  0  0  0
   -6.3587    0.8085    0.0000 C   0  0  0  0  0  0  0  0  0  0  0  0
   -6.7712    0.0940    0.0000 C   0  0  0  0  0  0  0  0  0  0  0  0
   -7.5962    0.0940    0.0000 C   0  0  0  0  0  0  0  0  0  0  0  0
   -8.0087    0.8085    0.0000 N   0  0  0  0  0  0  0  0  0  0  0  0
   -7.5962    1.5229    0.0000 C   0  0  0  0  0  0  0  0  0  0  0  0
   -6.7712    1.5229    0.0000 C   0  0  0  0  0  0  0  0  0  0  0  0
   -3.8837    2.2374    0.0000 C   0  0  0  0  0  0  0  0  0  0  0  0
   -3.0587    2.2374    0.0000 C   0  0  0  0  0  0  0  0  0  0  0  0
   -1.4087    2.2374    0.0000 C   0  0  0  0  0  0  0  0  0  0  0  0
   -0.5837    2.2374    0.0000 C   0  0  0  0  0  0  0  0  0  0  0  0
    1.1387    2.1904    0.0000 N   0  0  0  0  0  0  0  0  0  0  0  0
    1.9233    1.9354    0.0000 C   0  0  0  0  0  0  0  0  0  0  0  0
    2.6378    2.3479    0.0000 C   0  0  0  0  0  0  0  0  0  0  0  0
  1  2  1  0  0  0  0
  2  3  4  0  0  0  0
  3  4  4  0  0  0  0
  4  5  1  0  0  0  0
  5  6  2  0  0  0  0
  5  7  1  0  0  0  0
  4  8  4  0  0  0  0
  8  9  4  0  0  0  0
  9 10  4  0  0  0  0
 10 11  1  0  0  0  0
 11 12  4  0  0  0  0
 12 13  4  0  0  0  0
 13 14  4  0  0  0  0
 14 15  1  0  0  0  0
 15 16  4  0  0  0  0
 16 17  4  0  0  0  0
 17 18  4  0  0  0  0
 18 19  1  0  0  0  0
 19 20  1  0  0  0  0
 20 21  2  0  0  0  0
 20 22  1  0  0  0  0
 22 23  1  0  0  0  0
 23 24  1  0  0  0  0
 24 25  1  0  0  0  0
 25 26  1  0  0  0  0
 26 27  1  0  0  0  0
 22 27  1  0  0  0  0
 18 28  4  0  0  0  0
 28 29  4  0  0  0  0
 15 29  4  0  0  0  0
 14 30  4  0  0  0  0
 30 31  4  0  0  0  0
 11 31  4  0  0  0  0
 10 32  4  0  0  0  0
 32 33  4  0  0  0  0
  8 33  4  0  0  0  0
 33 34  4  0  0  0  0
  2 34  4  0  0  0  0
M  STY  1   1 DAT
M  SAL   1  1  32
M  SDT   1 MRV_IMPLICIT_H                                        
M  SDD   1     0.5304   -0.4125    DR    ALL  0       0  
M  SED   1 IMPL_H1
M  END
> <IC50(uM)>
3.691

> <Outcome>
0.0

> <BindingDB ID>
297792

> <BindingDB MonomerID>
155448

> <BindingDB Ligand Name>
US9006454, I90

> <Curation/DataSource>
US Patent

> <Article DOI>
?

> <PMID>
?

> <Patent Number>
US9006454

> <Authors>
Thunuguntla, SS; Subramanya, H; Kunnam, SR; Sanivaru Vijay, SR; Bingi, C; Kusanur, R; Schwarz, M; Arlt, M

> <Link to Ligand in BindingDB>
http://www.bindingdb.org/bind/chemsearch/marvin/MolStructure.jsp?monomerid=155448

> <Link to Ligand-Target Pair in BindingDB>
http://www.bindingdb.org/jsp/dbsearch/PrimarySearch_ki.jsp?energyterm=kJ/mole&tag=r21&monomerid=155448&enzyme=Dihydroorotate+dehydrogenase&column=ki&startPg=0&Increment=50&submit=Search

> <PubChem CID>
58073768

> <PubChem SID>
253658385

$$$$

  Mrv2115 07222212352D          

 28 30  0  0  0  0            999 V2000
    2.1434   -2.8875    0.0000 C   0  0  0  0  0  0  0  0  0  0  0  0
    2.1434   -3.7125    0.0000 C   0  0  0  0  0  0  0  0  0  0  0  0
    1.4289   -4.1250    0.0000 C   0  0  0  0  0  0  0  0  0  0  0  0
    1.4289   -4.9500    0.0000 C   0  0  0  0  0  0  0  0  0  0  0  0
    2.1434   -5.3625    0.0000 C   0  0  0  0  0  0  0  0  0  0  0  0
    2.1434   -6.1875    0.0000 N   0  0  0  0  0  0  0  0  0  0  0  0
    1.4289   -6.6000    0.0000 C   0  0  0  0  0  0  0  0  0  0  0  0
    0.7145   -6.1875    0.0000 C   0  0  0  0  0  0  0  0  0  0  0  0
   -0.0000   -6.6000    0.0000 N   0  0  0  0  0  0  0  0  0  0  0  0
    0.0000   -7.4250    0.0000 C   0  0  0  0  0  0  0  0  0  0  0  0
   -0.7145   -7.8375    0.0000 C   0  0  0  0  0  0  0  0  0  0  0  0
   -0.7145   -8.6625    0.0000 C   0  0  0  0  0  0  0  0  0  0  0  0
   -1.4289   -9.0750    0.0000 C   0  0  0  0  0  0  0  0  0  0  0  0
   -2.1434   -8.6625    0.0000 C   0  0  0  0  0  0  0  0  0  0  0  0
   -2.1434   -7.8375    0.0000 C   0  0  0  0  0  0  0  0  0  0  0  0
   -1.4289   -7.4250    0.0000 C   0  0  0  0  0  0  0  0  0  0  0  0
   -1.4289   -6.6000    0.0000 C   0  0  0  0  0  0  0  0  0  0  0  0
   -1.4289   -5.7750    0.0000 F   0  0  0  0  0  0  0  0  0  0  0  0
   -0.6039   -6.6000    0.0000 F   0  0  0  0  0  0  0  0  0  0  0  0
   -2.2539   -6.6000    0.0000 F   0  0  0  0  0  0  0  0  0  0  0  0
    0.7145   -7.8375    0.0000 C   0  0  0  0  0  0  0  0  0  0  0  0
    0.7145   -8.6625    0.0000 C   0  0  0  0  0  0  0  0  0  0  0  0
    1.4289   -7.4250    0.0000 C   0  0  0  0  0  0  0  0  0  0  0  0
    2.8579   -4.9500    0.0000 C   0  0  0  0  0  0  0  0  0  0  0  0
    3.5724   -5.3625    0.0000 C   0  0  0  0  0  0  0  0  0  0  0  0
    4.2868   -4.9500    0.0000 O   0  0  0  0  0  0  0  0  0  0  0  0
    3.5724   -6.1875    0.0000 O   0  0  0  0  0  0  0  0  0  0  0  0
    2.8579   -4.1250    0.0000 C   0  0  0  0  0  0  0  0  0  0  0  0
  1  2  1  0  0  0  0
  2  3  4  0  0  0  0
  3  4  4  0  0  0  0
  4  5  4  0  0  0  0
  5  6  1  0  0  0  0
  6  7  1  0  0  0  0
  7  8  4  0  0  0  0
  8  9  4  0  0  0  0
  9 10  4  0  0  0  0
 10 11  1  0  0  0  0
 11 12  4  0  0  0  0
 12 13  4  0  0  0  0
 13 14  4  0  0  0  0
 14 15  4  0  0  0  0
 15 16  4  0  0  0  0
 11 16  4  0  0  0  0
 16 17  1  0  0  0  0
 17 18  1  0  0  0  0
 17 19  1  0  0  0  0
 17 20  1  0  0  0  0
 10 21  4  0  0  0  0
 21 22  1  0  0  0  0
 21 23  4  0  0  0  0
  7 23  4  0  0  0  0
  5 24  4  0  0  0  0
 24 25  1  0  0  0  0
 25 26  2  0  0  0  0
 25 27  1  0  0  0  0
 24 28  4  0  0  0  0
  2 28  4  0  0  0  0
M  END
> <IC50(uM)>
0.02

> <Outcome>
1.0

> <BindingDB ID>
220008

> <BindingDB MonomerID>
102478

> <BindingDB Ligand Name>
US8536165, 75

> <Curation/DataSource>
US Patent

> <Article DOI>
?

> <PMID>
?

> <Patent Number>
US8536165

> <Authors>
Castro Palomino Laria, JC; Terricabras Belart, E; Erra Sola, M; Navarro Romero, E; Fonquerna Pou, S; Cardus Figueras, A; Lozoya Toribio, ME

> <Link to Ligand in BindingDB>
http://www.bindingdb.org/bind/chemsearch/marvin/MolStructure.jsp?monomerid=102478

> <Link to Ligand-Target Pair in BindingDB>
http://www.bindingdb.org/jsp/dbsearch/PrimarySearch_ki.jsp?energyterm=kJ/mole&tag=r21&monomerid=102478&enzyme=Dihydroorotate+dehydrogenase&column=ki&startPg=0&Increment=50&submit=Search

> <PubChem CID>
25188117

> <PubChem SID>
172097769

$$$$

  Mrv2115 07222212352D          

 37 40  0  0  0  0            999 V2000
   -3.1034    2.1599    0.0000 C   0  0  0  0  0  0  0  0  0  0  0  0
   -2.6909    1.4455    0.0000 C   0  0  0  0  0  0  0  0  0  0  0  0
   -3.1034    0.7310    0.0000 O   0  0  0  0  0  0  0  0  0  0  0  0
   -2.6909    0.0165    0.0000 C   0  0  0  0  0  0  0  0  0  0  0  0
   -1.8659    0.0165    0.0000 C   0  0  0  0  0  0  0  0  0  0  0  0
   -1.4534   -0.6979    0.0000 C   0  0  0  0  0  0  0  0  0  0  0  0
   -0.6284   -0.6979    0.0000 N   0  0  0  0  0  0  0  0  0  0  0  0
   -0.1435   -1.3654    0.0000 N   0  0  0  0  0  0  0  0  0  0  0  0
    0.6411   -1.1104    0.0000 C   0  0  0  0  0  0  0  0  0  0  0  0
    0.6411   -0.2854    0.0000 N   0  0  0  0  0  0  0  0  0  0  0  0
   -0.1435   -0.0305    0.0000 C   0  0  0  0  0  0  0  0  0  0  0  0
   -0.3984    0.7541    0.0000 O   0  0  0  0  0  0  0  0  0  0  0  0
    1.3556    0.1271    0.0000 C   0  0  0  0  0  0  0  0  0  0  0  0
    2.0701   -0.2854    0.0000 C   0  0  0  0  0  0  0  0  0  0  0  0
    2.3522    0.4898    0.0000 F   0  0  0  0  0  0  0  0  0  0  0  0
    2.8825   -0.4287    0.0000 F   0  0  0  0  0  0  0  0  0  0  0  0
    2.0701   -1.1104    0.0000 C   0  0  0  0  0  0  0  0  0  0  0  0
    1.3556   -1.5229    0.0000 C   0  0  0  0  0  0  0  0  0  0  0  0
   -1.8659   -1.4124    0.0000 C   0  0  0  0  0  0  0  0  0  0  0  0
   -1.4534   -2.1269    0.0000 F   0  0  0  0  0  0  0  0  0  0  0  0
   -2.6909   -1.4124    0.0000 C   0  0  0  0  0  0  0  0  0  0  0  0
   -3.1034   -0.6979    0.0000 C   0  0  0  0  0  0  0  0  0  0  0  0
   -3.9284   -0.6979    0.0000 C   0  0  0  0  0  0  0  0  0  0  0  0
   -4.3409    0.0165    0.0000 O   0  0  0  0  0  0  0  0  0  0  0  0
   -4.3409   -1.4124    0.0000 N   0  0  0  0  0  0  0  0  0  0  0  0
   -5.1659   -1.4124    0.0000 C   0  0  0  0  0  0  0  0  0  0  0  0
   -5.5784   -2.1269    0.0000 C   0  0  0  0  0  0  0  0  0  0  0  0
   -5.1659   -2.8414    0.0000 F   0  0  0  0  0  0  0  0  0  0  0  0
   -6.4034   -2.1269    0.0000 C   0  0  0  0  0  0  0  0  0  0  0  0
   -6.8159   -1.4124    0.0000 C   0  0  0  0  0  0  0  0  0  0  0  0
   -6.4034   -0.6979    0.0000 C   0  0  0  0  0  0  0  0  0  0  0  0
   -5.5784   -0.6979    0.0000 C   0  0  0  0  0  0  0  0  0  0  0  0
   -5.1659    0.0165    0.0000 F   0  0  0  0  0  0  0  0  0  0  0  0
   -1.8659    1.4455    0.0000 C   0  0  0  0  0  0  0  0  0  0  0  0
   -1.8659    0.6205    0.0000 F   0  0  0  0  0  0  0  0  0  0  0  0
   -1.8659    2.2705    0.0000 F   0  0  0  0  0  0  0  0  0  0  0  0
   -1.0409    1.4455    0.0000 F   0  0  0  0  0  0  0  0  0  0  0  0
  1  2  1  0  0  0  0
  2  3  1  0  0  0  0
  3  4  1  0  0  0  0
  4  5  4  0  0  0  0
  5  6  4  0  0  0  0
  6  7  1  0  0  0  0
  7  8  4  0  0  0  0
  8  9  4  0  0  0  0
  9 10  4  0  0  0  0
 10 11  4  0  0  0  0
  7 11  4  0  0  0  0
 11 12  2  0  0  0  0
 10 13  1  0  0  0  0
 13 14  1  0  0  0  0
 14 15  1  0  0  0  0
 14 16  1  0  0  0  0
 14 17  1  0  0  0  0
 17 18  1  0  0  0  0
  9 18  1  0  0  0  0
  6 19  4  0  0  0  0
 19 20  1  0  0  0  0
 19 21  4  0  0  0  0
 21 22  4  0  0  0  0
  4 22  4  0  0  0  0
 22 23  1  0  0  0  0
 23 24  2  0  0  0  0
 23 25  1  0  0  0  0
 25 26  1  0  0  0  0
 26 27  4  0  0  0  0
 27 28  1  0  0  0  0
 27 29  4  0  0  0  0
 29 30  4  0  0  0  0
 30 31  4  0  0  0  0
 31 32  4  0  0  0  0
 26 32  4  0  0  0  0
 32 33  1  0  0  0  0
  2 34  1  0  0  0  0
 34 35  1  0  0  0  0
 34 36  1  0  0  0  0
 34 37  1  0  0  0  0
M  END
> <IC50(uM)>
0.15

> <Outcome>
1.0

> <BindingDB ID>
1020655

> <BindingDB MonomerID>
490584

> <BindingDB Ligand Name>
4-(6,6-difluoro-3-oxo-5,6,7,8-tetrahydro[1,2,4]triazolo[4,3-a]pyridin-2(3H)-yl)-N-(2,6-difluoro-phenyl)-5-fluoro-2-{[(2S)-1,1,1-trifluoropropan-2-yl]oxy}benzamide::US10968216, Example 252

> <Curation/DataSource>
US Patent

> <Article DOI>
?

> <PMID>
?

> <Patent Number>
US10968216

> <Authors>
Gradl, SN; Nguyen, D; Eis, K; Gunther, J; Stellfeld, T; Janzer, A; Christian, S; Mueller, T; Sheikh, SE; Zhou, HJ; Zhao, C; Sykes, DB; Ferrara, SJ; Liu, K; Herbert, SA; Merz, C; Niehues, M; Nising, CF; Schafer, M; Zimmermann, K; Knablein, J; Thede, K; Faupel, T

> <Link to Ligand in BindingDB>
http://www.bindingdb.org/bind/chemsearch/marvin/MolStructure.jsp?monomerid=490584

> <Link to Ligand-Target Pair in BindingDB>
http://www.bindingdb.org/jsp/dbsearch/PrimarySearch_ki.jsp?energyterm=kJ/mole&tag=r21&monomerid=490584&enzyme=Dihydroorotate+dehydrogenase&column=ki&startPg=0&Increment=50&submit=Search

> <PubChem CID>
134474440

> <PubChem SID>
447117310

$$$$

  Mrv2115 07222212352D          

 24 27  0  0  0  0            999 V2000
    3.9934    2.4750    0.0000 N   0  0  0  0  0  0  0  0  0  0  0  0
    3.2789    2.0625    0.0000 C   0  0  0  0  0  0  0  0  0  0  0  0
    2.5645    2.4750    0.0000 O   0  0  0  0  0  0  0  0  0  0  0  0
    3.2789    1.2375    0.0000 C   0  0  0  0  0  0  0  0  0  0  0  0
    3.9934    0.8250    0.0000 C   0  0  0  0  0  0  0  0  0  0  0  0
    3.9934    0.0000    0.0000 C   0  0  0  0  0  0  0  0  0  0  0  0
    3.2789   -0.4125    0.0000 C   0  0  0  0  0  0  0  0  0  0  0  0
    2.5645    0.0000    0.0000 C   0  0  0  0  0  0  0  0  0  0  0  0
    1.7798   -0.2549    0.0000 N   0  0  0  0  0  0  0  0  0  0  0  0
    1.2949    0.4125    0.0000 C   0  0  0  0  0  0  0  0  0  0  0  0
    0.4699    0.4125    0.0000 C   0  0  0  0  0  0  0  0  0  0  0  0
    0.0574   -0.3020    0.0000 C   0  0  0  0  0  0  0  0  0  0  0  0
   -0.7676   -0.3020    0.0000 C   0  0  0  0  0  0  0  0  0  0  0  0
   -1.1801    0.4125    0.0000 C   0  0  0  0  0  0  0  0  0  0  0  0
   -2.0051    0.4125    0.0000 C   0  0  0  0  0  0  0  0  0  0  0  0
   -2.4176   -0.3020    0.0000 C   0  0  0  0  0  0  0  0  0  0  0  0
   -3.2426   -0.3020    0.0000 C   0  0  0  0  0  0  0  0  0  0  0  0
   -3.6551    0.4125    0.0000 C   0  0  0  0  0  0  0  0  0  0  0  0
   -3.2426    1.1270    0.0000 C   0  0  0  0  0  0  0  0  0  0  0  0
   -2.4176    1.1270    0.0000 C   0  0  0  0  0  0  0  0  0  0  0  0
   -0.7676    1.1270    0.0000 C   0  0  0  0  0  0  0  0  0  0  0  0
    0.0574    1.1270    0.0000 C   0  0  0  0  0  0  0  0  0  0  0  0
    1.7798    1.0799    0.0000 N   0  0  0  0  0  0  0  0  0  0  0  0
    2.5645    0.8250    0.0000 C   0  0  0  0  0  0  0  0  0  0  0  0
  1  2  1  0  0  0  0
  2  3  2  0  0  0  0
  2  4  1  0  0  0  0
  4  5  4  0  0  0  0
  5  6  4  0  0  0  0
  6  7  4  0  0  0  0
  7  8  4  0  0  0  0
  8  9  4  0  0  0  0
  9 10  4  0  0  0  0
 10 11  1  0  0  0  0
 11 12  4  0  0  0  0
 12 13  4  0  0  0  0
 13 14  4  0  0  0  0
 14 15  1  0  0  0  0
 15 16  4  0  0  0  0
 16 17  4  0  0  0  0
 17 18  4  0  0  0  0
 18 19  4  0  0  0  0
 19 20  4  0  0  0  0
 15 20  4  0  0  0  0
 14 21  4  0  0  0  0
 21 22  4  0  0  0  0
 11 22  4  0  0  0  0
 10 23  4  0  0  0  0
 23 24  4  0  0  0  0
  4 24  4  0  0  0  0
  8 24  4  0  0  0  0
M  STY  1   1 DAT
M  SAL   1  1   9
M  SDT   1 MRV_IMPLICIT_H                                        
M  SDD   1     0.5304   -0.4125    DR    ALL  0       0  
M  SED   1 IMPL_H1
M  END
> <IC50(uM)>
9.8

> <Outcome>
0.0

> <BindingDB ID>
50358210

> <BindingDB MonomerID>
50300017

> <BindingDB Ligand Name>
2-(biphenyl-4-yl)-1H-benzo[d]imidazole-4-carboxamide::CHEMBL578185

> <Curation/DataSource>
ChEMBL

> <Article DOI>
10.1016/j.bmc.2015.05.051

> <PMID>
26088338

> <Patent Number>
?

> <Authors>
Abdullah, I; Chee, CF; Lee, YK; Thunuguntla, SS; Satish Reddy, K; Nellore, K; Antony, T; Verma, J; Mun, KW; Othman, S; Subramanya, H; Rahman, NA

> <Link to Ligand in BindingDB>
http://www.bindingdb.org/bind/chemsearch/marvin/MolStructure.jsp?monomerid=50300017

> <Link to Ligand-Target Pair in BindingDB>
http://www.bindingdb.org/jsp/dbsearch/PrimarySearch_ki.jsp?energyterm=kJ/mole&tag=r21&monomerid=50300017&enzyme=Dihydroorotate+dehydrogenase&column=ki&startPg=0&Increment=50&submit=Search

> <PubChem CID>
45484114

> <PubChem SID>
104154378

$$$$

  Mrv2115 07222212352D          

 34 37  0  0  0  0            999 V2000
   -3.1034    2.1599    0.0000 C   0  0  0  0  0  0  0  0  0  0  0  0
   -2.6909    1.4455    0.0000 C   0  0  0  0  0  0  0  0  0  0  0  0
   -3.1034    0.7310    0.0000 O   0  0  0  0  0  0  0  0  0  0  0  0
   -2.6909    0.0165    0.0000 C   0  0  0  0  0  0  0  0  0  0  0  0
   -1.8659    0.0165    0.0000 C   0  0  0  0  0  0  0  0  0  0  0  0
   -1.4534   -0.6979    0.0000 C   0  0  0  0  0  0  0  0  0  0  0  0
   -0.6284   -0.6979    0.0000 N   0  0  0  0  0  0  0  0  0  0  0  0
   -0.1435   -1.3654    0.0000 N   0  0  0  0  0  0  0  0  0  0  0  0
    0.6411   -1.1104    0.0000 C   0  0  0  0  0  0  0  0  0  0  0  0
    0.6411   -0.2854    0.0000 N   0  0  0  0  0  0  0  0  0  0  0  0
   -0.1435   -0.0305    0.0000 C   0  0  0  0  0  0  0  0  0  0  0  0
   -0.3984    0.7541    0.0000 O   0  0  0  0  0  0  0  0  0  0  0  0
    1.3556    0.1271    0.0000 C   0  0  0  0  0  0  0  0  0  0  0  0
    2.0701   -0.2854    0.0000 C   0  0  0  0  0  0  0  0  0  0  0  0
    2.0701   -1.1104    0.0000 C   0  0  0  0  0  0  0  0  0  0  0  0
    1.3556   -1.5229    0.0000 C   0  0  0  0  0  0  0  0  0  0  0  0
   -1.8659   -1.4124    0.0000 C   0  0  0  0  0  0  0  0  0  0  0  0
   -1.4534   -2.1269    0.0000 F   0  0  0  0  0  0  0  0  0  0  0  0
   -2.6909   -1.4124    0.0000 C   0  0  0  0  0  0  0  0  0  0  0  0
   -3.1034   -0.6979    0.0000 C   0  0  0  0  0  0  0  0  0  0  0  0
   -3.9284   -0.6979    0.0000 C   0  0  0  0  0  0  0  0  0  0  0  0
   -4.3409    0.0165    0.0000 O   0  0  0  0  0  0  0  0  0  0  0  0
   -4.3409   -1.4124    0.0000 N   0  0  0  0  0  0  0  0  0  0  0  0
   -5.1659   -1.4124    0.0000 C   0  0  0  0  0  0  0  0  0  0  0  0
   -5.5784   -2.1269    0.0000 C   0  0  0  0  0  0  0  0  0  0  0  0
   -6.4034   -2.1269    0.0000 C   0  0  0  0  0  0  0  0  0  0  0  0
   -6.8159   -1.4124    0.0000 N   0  0  0  0  0  0  0  0  0  0  0  0
   -7.6409   -1.4124    0.0000 C   0  0  0  0  0  0  0  0  0  0  0  0
   -6.4034   -0.6979    0.0000 C   0  0  0  0  0  0  0  0  0  0  0  0
   -5.5784   -0.6979    0.0000 C   0  0  0  0  0  0  0  0  0  0  0  0
   -1.8659    1.4455    0.0000 C   0  0  0  0  0  0  0  0  0  0  0  0
   -1.8659    0.6205    0.0000 F   0  0  0  0  0  0  0  0  0  0  0  0
   -1.8659    2.2705    0.0000 F   0  0  0  0  0  0  0  0  0  0  0  0
   -1.0409    1.4455    0.0000 F   0  0  0  0  0  0  0  0  0  0  0  0
  1  2  1  0  0  0  0
  2  3  1  0  0  0  0
  3  4  1  0  0  0  0
  4  5  4  0  0  0  0
  5  6  4  0  0  0  0
  6  7  1  0  0  0  0
  7  8  4  0  0  0  0
  8  9  4  0  0  0  0
  9 10  4  0  0  0  0
 10 11  4  0  0  0  0
  7 11  4  0  0  0  0
 11 12  2  0  0  0  0
 10 13  1  0  0  0  0
 13 14  1  0  0  0  0
 14 15  1  0  0  0  0
 15 16  1  0  0  0  0
  9 16  1  0  0  0  0
  6 17  4  0  0  0  0
 17 18  1  0  0  0  0
 17 19  4  0  0  0  0
 19 20  4  0  0  0  0
  4 20  4  0  0  0  0
 20 21  1  0  0  0  0
 21 22  2  0  0  0  0
 21 23  1  0  0  0  0
 23 24  1  0  0  0  0
 24 25  1  0  0  0  0
 25 26  1  0  0  0  0
 26 27  1  0  0  0  0
 27 28  1  0  0  0  0
 27 29  1  0  0  0  0
 29 30  1  0  0  0  0
 24 30  1  0  0  0  0
  2 31  1  0  0  0  0
 31 32  1  0  0  0  0
 31 33  1  0  0  0  0
 31 34  1  0  0  0  0
M  END
> <IC50(uM)>
30.0

> <Outcome>
0.0

> <BindingDB ID>
1020426

> <BindingDB MonomerID>
490377

> <BindingDB Ligand Name>
5-fluoro-N-(1-methylpiperidin-4-yl)-4-(3-oxo-5,6,7,8-tetrahydro[1,2,4]triazolo[4,3-a]pyridin-2(3H)-yl)-2-{[(2S)-1,1,1-trifluoropropan-2-yl]oxy}benzamide::US10968216, Example 45

> <Curation/DataSource>
US Patent

> <Article DOI>
?

> <PMID>
?

> <Patent Number>
US10968216

> <Authors>
Gradl, SN; Nguyen, D; Eis, K; Gunther, J; Stellfeld, T; Janzer, A; Christian, S; Mueller, T; Sheikh, SE; Zhou, HJ; Zhao, C; Sykes, DB; Ferrara, SJ; Liu, K; Herbert, SA; Merz, C; Niehues, M; Nising, CF; Schafer, M; Zimmermann, K; Knablein, J; Thede, K; Faupel, T

> <Link to Ligand in BindingDB>
http://www.bindingdb.org/bind/chemsearch/marvin/MolStructure.jsp?monomerid=490377

> <Link to Ligand-Target Pair in BindingDB>
http://www.bindingdb.org/jsp/dbsearch/PrimarySearch_ki.jsp?energyterm=kJ/mole&tag=r21&monomerid=490377&enzyme=Dihydroorotate+dehydrogenase&column=ki&startPg=0&Increment=50&submit=Search

> <PubChem CID>
134473939

> <PubChem SID>
447117104

$$$$

  Mrv2115 07222212352D          

 19 21  0  0  0  0            999 V2000
    2.1434   -2.8875    0.0000 O   0  0  0  0  0  0  0  0  0  0  0  0
    1.4289   -2.4750    0.0000 C   0  0  0  0  0  0  0  0  0  0  0  0
    0.7145   -2.8875    0.0000 O   0  0  0  0  0  0  0  0  0  0  0  0
    1.4289   -1.6500    0.0000 C   0  0  0  0  0  0  0  0  0  0  0  0
    0.7145   -1.2375    0.0000 C   0  0  0  0  0  0  0  0  0  0  0  0
    0.7145   -0.4125    0.0000 C   0  0  0  0  0  0  0  0  0  0  0  0
    0.0000    0.0000    0.0000 C   0  0  0  0  0  0  0  0  0  0  0  0
   -0.7145   -0.4125    0.0000 C   0  0  0  0  0  0  0  0  0  0  0  0
   -1.4289    0.0000    0.0000 C   0  0  0  0  0  0  0  0  0  0  0  0
   -1.4289    0.8250    0.0000 C   0  0  0  0  0  0  0  0  0  0  0  0
   -0.7145    1.2375    0.0000 C   0  0  0  0  0  0  0  0  0  0  0  0
    0.0000    0.8250    0.0000 C   0  0  0  0  0  0  0  0  0  0  0  0
    1.4289    0.0000    0.0000 N   0  0  0  0  0  0  0  0  0  0  0  0
    2.1434   -0.4125    0.0000 C   0  0  0  0  0  0  0  0  0  0  0  0
    2.8579    0.0000    0.0000 C   0  0  0  0  0  0  0  0  0  0  0  0
    3.5724   -0.4125    0.0000 C   0  0  0  0  0  0  0  0  0  0  0  0
    3.5724   -1.2375    0.0000 C   0  0  0  0  0  0  0  0  0  0  0  0
    2.8579   -1.6500    0.0000 C   0  0  0  0  0  0  0  0  0  0  0  0
    2.1434   -1.2375    0.0000 C   0  0  0  0  0  0  0  0  0  0  0  0
  1  2  2  0  0  0  0
  2  3  1  0  0  0  0
  2  4  1  0  0  0  0
  4  5  4  0  0  0  0
  5  6  4  0  0  0  0
  6  7  1  0  0  0  0
  7  8  4  0  0  0  0
  8  9  4  0  0  0  0
  9 10  4  0  0  0  0
 10 11  4  0  0  0  0
 11 12  4  0  0  0  0
  7 12  4  0  0  0  0
  6 13  4  0  0  0  0
 13 14  4  0  0  0  0
 14 15  4  0  0  0  0
 15 16  4  0  0  0  0
 16 17  4  0  0  0  0
 17 18  4  0  0  0  0
 18 19  4  0  0  0  0
  4 19  4  0  0  0  0
 14 19  4  0  0  0  0
M  END
> <IC50(uM)>
144.0

> <Outcome>
0.0

> <BindingDB ID>
51126207

> <BindingDB MonomerID>
50097100

> <BindingDB Ligand Name>
2-Phenyl-quinoline-4-carboxylic acid::2-phenylquinoline-4-carboxylic acid::CHEMBL348000::Cinchophen

> <Curation/DataSource>
ChEMBL

> <Article DOI>
10.1021/acs.jmedchem.7b01862

> <PMID>
29727569

> <Patent Number>
?

> <Authors>
Madak, JT; Cuthbertson, CR; Miyata, Y; Tamura, S; Petrunak, EM; Stuckey, JA; Han, Y; He, M; Sun, D; Showalter, HD; Neamati, N

> <Link to Ligand in BindingDB>
http://www.bindingdb.org/bind/chemsearch/marvin/MolStructure.jsp?monomerid=50097100

> <Link to Ligand-Target Pair in BindingDB>
http://www.bindingdb.org/jsp/dbsearch/PrimarySearch_ki.jsp?energyterm=kJ/mole&tag=r21&monomerid=50097100&enzyme=Dihydroorotate+dehydrogenase&column=ki&startPg=0&Increment=50&submit=Search

> <PubChem CID>
8593

> <PubChem SID>
103994494

$$$$

  Mrv2115 07222212352D          

 34 36  0  0  0  0            999 V2000
    2.1434   -3.7125    0.0000 C   0  0  0  0  0  0  0  0  0  0  0  0
    1.4289   -4.1250    0.0000 C   0  0  0  0  0  0  0  0  0  0  0  0
    1.4289   -4.9500    0.0000 N   0  0  0  0  0  0  0  0  0  0  0  0
    2.0964   -5.4349    0.0000 C   0  0  0  0  0  0  0  0  0  0  0  0
    2.8810   -5.1800    0.0000 C   0  0  0  0  0  0  0  0  0  0  0  0
    3.4941   -5.7320    0.0000 O   0  0  0  0  0  0  0  0  0  0  0  0
    1.8414   -6.2195    0.0000 N   0  0  0  0  0  0  0  0  0  0  0  0
    1.0164   -6.2195    0.0000 N   0  0  0  0  0  0  0  0  0  0  0  0
    0.5315   -6.8870    0.0000 C   0  0  0  0  0  0  0  0  0  0  0  0
    0.8671   -7.6407    0.0000 C   0  0  0  0  0  0  0  0  0  0  0  0
    0.3822   -8.3081    0.0000 C   0  0  0  0  0  0  0  0  0  0  0  0
   -0.4383   -8.2219    0.0000 C   0  0  0  0  0  0  0  0  0  0  0  0
   -0.9232   -8.8893    0.0000 C   0  0  0  0  0  0  0  0  0  0  0  0
   -1.7437   -8.8031    0.0000 O   0  0  0  0  0  0  0  0  0  0  0  0
   -0.5877   -9.6430    0.0000 N   0  0  0  0  0  0  0  0  0  0  0  0
   -1.0726  -10.3104    0.0000 C   0  0  0  0  0  0  0  0  0  0  0  0
   -0.7371  -11.0641    0.0000 C   0  0  0  0  0  0  0  0  0  0  0  0
    0.0834  -11.1503    0.0000 F   0  0  0  0  0  0  0  0  0  0  0  0
   -1.2220  -11.7315    0.0000 C   0  0  0  0  0  0  0  0  0  0  0  0
   -2.0425  -11.6453    0.0000 C   0  0  0  0  0  0  0  0  0  0  0  0
   -2.3780  -10.8916    0.0000 C   0  0  0  0  0  0  0  0  0  0  0  0
   -1.8931  -10.2242    0.0000 C   0  0  0  0  0  0  0  0  0  0  0  0
   -2.2287   -9.4705    0.0000 Cl  0  0  0  0  0  0  0  0  0  0  0  0
   -0.7739   -7.4682    0.0000 C   0  0  0  0  0  0  0  0  0  0  0  0
   -1.5944   -7.3820    0.0000 O   0  0  0  0  0  0  0  0  0  0  0  0
   -1.9299   -6.6283    0.0000 C   0  0  0  0  0  0  0  0  0  0  0  0
   -2.7504   -6.5420    0.0000 C   0  0  0  0  0  0  0  0  0  0  0  0
   -1.4450   -5.9608    0.0000 C   0  0  0  0  0  0  0  0  0  0  0  0
   -0.7776   -6.4458    0.0000 F   0  0  0  0  0  0  0  0  0  0  0  0
   -2.1124   -5.4759    0.0000 F   0  0  0  0  0  0  0  0  0  0  0  0
   -0.9601   -5.2934    0.0000 F   0  0  0  0  0  0  0  0  0  0  0  0
   -0.2890   -6.8007    0.0000 C   0  0  0  0  0  0  0  0  0  0  0  0
    0.7615   -5.4349    0.0000 C   0  0  0  0  0  0  0  0  0  0  0  0
   -0.0231   -5.1800    0.0000 O   0  0  0  0  0  0  0  0  0  0  0  0
  1  2  1  0  0  0  0
  2  3  1  0  0  0  0
  3  4  4  0  0  0  0
  4  5  1  0  0  0  0
  5  6  1  0  0  0  0
  4  7  4  0  0  0  0
  7  8  4  0  0  0  0
  8  9  1  0  0  0  0
  9 10  4  0  0  0  0
 10 11  4  0  0  0  0
 11 12  4  0  0  0  0
 12 13  1  0  0  0  0
 13 14  2  0  0  0  0
 13 15  1  0  0  0  0
 15 16  1  0  0  0  0
 16 17  4  0  0  0  0
 17 18  1  0  0  0  0
 17 19  4  0  0  0  0
 19 20  4  0  0  0  0
 20 21  4  0  0  0  0
 21 22  4  0  0  0  0
 16 22  4  0  0  0  0
 22 23  1  0  0  0  0
 12 24  4  0  0  0  0
 24 25  1  0  0  0  0
 25 26  1  0  0  0  0
 26 27  1  0  0  0  0
 26 28  1  0  0  0  0
 28 29  1  0  0  0  0
 28 30  1  0  0  0  0
 28 31  1  0  0  0  0
 24 32  4  0  0  0  0
  9 32  4  0  0  0  0
  8 33  4  0  0  0  0
  3 33  4  0  0  0  0
 33 34  2  0  0  0  0
M  END
> <IC50(uM)>
0.006

> <Outcome>
1.0

> <BindingDB ID>
972640; 1098794

> <BindingDB MonomerID>
470518

> <BindingDB Ligand Name>
N-(2-chloro-6-fluorophenyl)-4-[4-ethyl-3-(hydroxymethyl)-5-oxo-4,5-dihydro-1H-1,2,4-triazol-1-yl]-2-{[(2S)-1,1,1-trifluoropropan-2-yl]oxy}benzamide::US10815215, Example 178; N-(2-chloro-6-fluorophenyl)-4-[4-ethyl-3-(hydroxymethyl)-5-oxo-4,5-dihydro-1H-1,2,4-triazol-1-yl]-2-{[(2S)-1,1,1-trifluoropropan-2-yl]oxy}benzamide::US10815215, Example 178::US11130745, Example 178

> <Curation/DataSource>
US Patent

> <Article DOI>
?

> <PMID>
?

> <Patent Number>
US10815215; US11130745

> <Authors>
Gradl, SN; Nguyen, D; Eis, K; Gunther, J; Stellfeld, T; Janzer, A; Christian, S; Muller, T; Sheikh, SE; Zhou, HJ; Zhao, C; Sykes, DB; Ferrara, SJ; Liu, K; Krober, M; Merz, C; Niehues, M; Schafer, M; Zimmermann, K; Nising, CF; Gradl, SN; Nguyen, D; Eis, K; Gunther, J; Stellfeld, T; Janzer, A; Christian, S; Muller, T; Sheikh, SE; Sykes, DB; Ferrara, SJ; Krober, M; Merz, C; Niehues, M; Schafer, M; Zimmermann, K; Nising, CF

> <Link to Ligand in BindingDB>
http://www.bindingdb.org/bind/chemsearch/marvin/MolStructure.jsp?monomerid=470518

> <Link to Ligand-Target Pair in BindingDB>
http://www.bindingdb.org/jsp/dbsearch/PrimarySearch_ki.jsp?energyterm=kJ/mole&tag=r21&monomerid=470518&enzyme=Dihydroorotate+dehydrogenase&column=ki&startPg=0&Increment=50&submit=Search

> <PubChem CID>
134470387

> <PubChem SID>
441609694

$$$$

  Mrv2115 07222212352D          

 29 32  0  0  0  0            999 V2000
    0.7145   -2.8875    0.0000 O   0  0  0  0  0  0  0  0  0  0  0  0
    1.4289   -2.4750    0.0000 C   0  0  0  0  0  0  0  0  0  0  0  0
    2.1434   -2.8875    0.0000 O   0  0  0  0  0  0  0  0  0  0  0  0
    2.1434   -3.7125    0.0000 C   0  0  0  0  0  0  0  0  0  0  0  0
    2.8579   -4.1250    0.0000 C   0  0  0  0  0  0  0  0  0  0  0  0
    3.5724   -3.7125    0.0000 C   0  0  0  0  0  0  0  0  0  0  0  0
    4.2868   -4.1250    0.0000 C   0  0  0  0  0  0  0  0  0  0  0  0
    4.2868   -4.9500    0.0000 C   0  0  0  0  0  0  0  0  0  0  0  0
    3.5724   -5.3625    0.0000 C   0  0  0  0  0  0  0  0  0  0  0  0
    2.8579   -4.9500    0.0000 C   0  0  0  0  0  0  0  0  0  0  0  0
    1.4289   -1.6500    0.0000 C   0  0  0  0  0  0  0  0  0  0  0  0
    0.7145   -1.2375    0.0000 C   0  0  0  0  0  0  0  0  0  0  0  0
    0.7145   -0.4125    0.0000 C   0  0  0  0  0  0  0  0  0  0  0  0
    0.0000    0.0000    0.0000 C   0  0  0  0  0  0  0  0  0  0  0  0
   -0.7145   -0.4125    0.0000 C   0  0  0  0  0  0  0  0  0  0  0  0
   -1.4289    0.0000    0.0000 C   0  0  0  0  0  0  0  0  0  0  0  0
   -1.4289    0.8250    0.0000 C   0  0  0  0  0  0  0  0  0  0  0  0
   -2.1434    1.2375    0.0000 Cl  0  0  0  0  0  0  0  0  0  0  0  0
   -0.7145    1.2375    0.0000 C   0  0  0  0  0  0  0  0  0  0  0  0
    0.0000    0.8250    0.0000 C   0  0  0  0  0  0  0  0  0  0  0  0
    1.4289    0.0000    0.0000 N   0  0  0  0  0  0  0  0  0  0  0  0
    2.1434   -0.4125    0.0000 C   0  0  0  0  0  0  0  0  0  0  0  0
    2.8579    0.0000    0.0000 C   0  0  0  0  0  0  0  0  0  0  0  0
    3.5724   -0.4125    0.0000 C   0  0  0  0  0  0  0  0  0  0  0  0
    4.2868   -0.0000    0.0000 Cl  0  0  0  0  0  0  0  0  0  0  0  0
    3.5724   -1.2375    0.0000 C   0  0  0  0  0  0  0  0  0  0  0  0
    4.2868   -1.6500    0.0000 Cl  0  0  0  0  0  0  0  0  0  0  0  0
    2.8579   -1.6500    0.0000 C   0  0  0  0  0  0  0  0  0  0  0  0
    2.1434   -1.2375    0.0000 C   0  0  0  0  0  0  0  0  0  0  0  0
  1  2  2  0  0  0  0
  2  3  1  0  0  0  0
  3  4  1  0  0  0  0
  4  5  1  0  0  0  0
  5  6  4  0  0  0  0
  6  7  4  0  0  0  0
  7  8  4  0  0  0  0
  8  9  4  0  0  0  0
  9 10  4  0  0  0  0
  5 10  4  0  0  0  0
  2 11  1  0  0  0  0
 11 12  4  0  0  0  0
 12 13  4  0  0  0  0
 13 14  1  0  0  0  0
 14 15  4  0  0  0  0
 15 16  4  0  0  0  0
 16 17  4  0  0  0  0
 17 18  1  0  0  0  0
 17 19  4  0  0  0  0
 19 20  4  0  0  0  0
 14 20  4  0  0  0  0
 13 21  4  0  0  0  0
 21 22  4  0  0  0  0
 22 23  4  0  0  0  0
 23 24  4  0  0  0  0
 24 25  1  0  0  0  0
 24 26  4  0  0  0  0
 26 27  1  0  0  0  0
 26 28  4  0  0  0  0
 28 29  4  0  0  0  0
 11 29  4  0  0  0  0
 22 29  4  0  0  0  0
M  END
> <IC50(uM)>
7.48

> <Outcome>
0.0

> <BindingDB ID>
51311343

> <BindingDB MonomerID>
50532168

> <BindingDB Ligand Name>
CHEMBL4437585

> <Curation/DataSource>
ChEMBL

> <Article DOI>
10.1016/j.bmcl.2019.01.038

> <PMID>
30738663

> <Patent Number>
?

> <Authors>
Vyas, VK; Qureshi, G; Oza, D; Patel, H; Parmar, K; Patel, P; Ghate, MD

> <Link to Ligand in BindingDB>
http://www.bindingdb.org/bind/chemsearch/marvin/MolStructure.jsp?monomerid=50532168

> <Link to Ligand-Target Pair in BindingDB>
http://www.bindingdb.org/jsp/dbsearch/PrimarySearch_ki.jsp?energyterm=kJ/mole&tag=r21&monomerid=50532168&enzyme=Dihydroorotate+dehydrogenase&column=ki&startPg=0&Increment=50&submit=Search

> <PubChem CID>
155512621

> <PubChem SID>
440740750

$$$$

  Mrv2115 07222212352D          

 30 32  0  0  0  0            999 V2000
   -4.0365   -6.5117    0.0000 C   0  0  0  0  0  0  0  0  0  0  0  0
   -3.3220   -6.0992    0.0000 C   0  0  0  0  0  0  0  0  0  0  0  0
   -2.6076   -6.5117    0.0000 C   0  0  0  0  0  0  0  0  0  0  0  0
   -1.8931   -6.0992    0.0000 C   0  0  0  0  0  0  0  0  0  0  0  0
   -1.1786   -6.5117    0.0000 C   0  0  0  0  0  0  0  0  0  0  0  0
   -0.4642   -6.0992    0.0000 O   0  0  0  0  0  0  0  0  0  0  0  0
    0.2503   -6.5117    0.0000 C   0  0  0  0  0  0  0  0  0  0  0  0
    0.2503   -7.3367    0.0000 O   0  0  0  0  0  0  0  0  0  0  0  0
    0.9648   -6.0992    0.0000 C   0  0  0  0  0  0  0  0  0  0  0  0
    0.9648   -5.2742    0.0000 C   0  0  0  0  0  0  0  0  0  0  0  0
    1.6793   -4.8617    0.0000 C   0  0  0  0  0  0  0  0  0  0  0  0
    2.3937   -5.2742    0.0000 C   0  0  0  0  0  0  0  0  0  0  0  0
    2.3937   -6.0992    0.0000 C   0  0  0  0  0  0  0  0  0  0  0  0
    1.6793   -6.5117    0.0000 C   0  0  0  0  0  0  0  0  0  0  0  0
    1.6793   -7.3367    0.0000 C   0  0  0  0  0  0  0  0  0  0  0  0
    0.9648   -7.7492    0.0000 N   0  0  0  0  0  0  0  0  0  0  0  0
    0.9648   -8.5742    0.0000 N   0  0  0  0  0  0  0  0  0  0  0  0
    0.2503   -8.9867    0.0000 C   0  0  0  0  0  0  0  0  0  0  0  0
    1.6793   -8.9867    0.0000 C   0  0  0  0  0  0  0  0  0  0  0  0
    2.4329   -8.6511    0.0000 N   0  0  0  0  0  0  0  0  0  0  0  0
    2.9850   -9.2642    0.0000 C   0  0  0  0  0  0  0  0  0  0  0  0
    3.8054   -9.1780    0.0000 C   0  0  0  0  0  0  0  0  0  0  0  0
    4.1410   -8.4243    0.0000 C   0  0  0  0  0  0  0  0  0  0  0  0
    4.9615   -8.3381    0.0000 C   0  0  0  0  0  0  0  0  0  0  0  0
    5.4464   -9.0055    0.0000 C   0  0  0  0  0  0  0  0  0  0  0  0
    5.1109   -9.7592    0.0000 C   0  0  0  0  0  0  0  0  0  0  0  0
    4.2904   -9.8454    0.0000 C   0  0  0  0  0  0  0  0  0  0  0  0
    3.9548  -10.5991    0.0000 Cl  0  0  0  0  0  0  0  0  0  0  0  0
    2.5725   -9.9787    0.0000 C   0  0  0  0  0  0  0  0  0  0  0  0
    1.7655   -9.8072    0.0000 S   0  0  0  0  0  0  0  0  0  0  0  0
  1  2  1  0  0  0  0
  2  3  1  0  0  0  0
  3  4  1  0  0  0  0
  4  5  1  0  0  0  0
  5  6  1  0  0  0  0
  6  7  1  0  0  0  0
  7  8  2  0  0  0  0
  7  9  1  0  0  0  0
  9 10  4  0  0  0  0
 10 11  4  0  0  0  0
 11 12  4  0  0  0  0
 12 13  4  0  0  0  0
 13 14  4  0  0  0  0
  9 14  4  0  0  0  0
 14 15  1  0  0  0  0
 15 16  2  0  0  0  0
 16 17  1  0  0  0  0
 17 18  1  0  0  0  0
 17 19  1  0  0  0  0
 19 20  4  0  0  0  0
 20 21  4  0  0  0  0
 21 22  1  0  0  0  0
 22 23  4  0  0  0  0
 23 24  4  0  0  0  0
 24 25  4  0  0  0  0
 25 26  4  0  0  0  0
 26 27  4  0  0  0  0
 22 27  4  0  0  0  0
 27 28  1  0  0  0  0
 21 29  4  0  0  0  0
 29 30  4  0  0  0  0
 19 30  4  0  0  0  0
M  END
> <IC50(uM)>
50.0

> <Outcome>
0.0

> <BindingDB ID>
1001153

> <BindingDB MonomerID>
482839

> <BindingDB Ligand Name>
US10919869, No.  B6

> <Curation/DataSource>
US Patent

> <Article DOI>
?

> <PMID>
?

> <Patent Number>
US10919869

> <Authors>
Li, H; Xu, Y; Wang, R; Zhao, Z; Song, W; Xu, L

> <Link to Ligand in BindingDB>
http://www.bindingdb.org/bind/chemsearch/marvin/MolStructure.jsp?monomerid=482839

> <Link to Ligand-Target Pair in BindingDB>
http://www.bindingdb.org/jsp/dbsearch/PrimarySearch_ki.jsp?energyterm=kJ/mole&tag=r21&monomerid=482839&enzyme=Dihydroorotate+dehydrogenase&column=ki&startPg=0&Increment=50&submit=Search

> <PubChem CID>
132157998

> <PubChem SID>
443551979

$$$$

  Mrv2115 07222212352D          

 25 27  0  0  0  0            999 V2000
   -0.7145    1.2375    0.0000 C   0  0  0  0  0  0  0  0  0  0  0  0
    0.0000    0.8250    0.0000 C   0  0  0  0  0  0  0  0  0  0  0  0
    0.0000   -0.0000    0.0000 O   0  0  0  0  0  0  0  0  0  0  0  0
    0.7145   -0.4125    0.0000 C   0  0  0  0  0  0  0  0  0  0  0  0
    1.4289   -0.0000    0.0000 O   0  0  0  0  0  0  0  0  0  0  0  0
    0.7145   -1.2375    0.0000 C   0  0  0  0  0  0  0  0  0  0  0  0
    1.3819   -1.7224    0.0000 S   0  0  0  0  0  0  0  0  0  0  0  0
    1.1270   -2.5070    0.0000 C   0  0  0  0  0  0  0  0  0  0  0  0
    1.6119   -3.1745    0.0000 N   0  0  0  0  0  0  0  0  0  0  0  0
    1.2763   -3.9282    0.0000 C   0  0  0  0  0  0  0  0  0  0  0  0
    1.7613   -4.5956    0.0000 C   0  0  0  0  0  0  0  0  0  0  0  0
    1.4257   -5.3493    0.0000 C   0  0  0  0  0  0  0  0  0  0  0  0
    0.6052   -5.4355    0.0000 C   0  0  0  0  0  0  0  0  0  0  0  0
    0.2697   -6.1892    0.0000 C   0  0  0  0  0  0  0  0  0  0  0  0
    0.1203   -4.7681    0.0000 C   0  0  0  0  0  0  0  0  0  0  0  0
   -0.7002   -4.8543    0.0000 C   0  0  0  0  0  0  0  0  0  0  0  0
    0.4559   -4.0144    0.0000 C   0  0  0  0  0  0  0  0  0  0  0  0
    0.3020   -2.5070    0.0000 N   0  0  0  0  0  0  0  0  0  0  0  0
    0.0470   -1.7224    0.0000 C   0  0  0  0  0  0  0  0  0  0  0  0
   -0.7376   -1.4675    0.0000 C   0  0  0  0  0  0  0  0  0  0  0  0
   -1.3507   -2.0195    0.0000 C   0  0  0  0  0  0  0  0  0  0  0  0
   -2.1353   -1.7646    0.0000 C   0  0  0  0  0  0  0  0  0  0  0  0
   -2.3068   -0.9576    0.0000 C   0  0  0  0  0  0  0  0  0  0  0  0
   -1.6937   -0.4056    0.0000 C   0  0  0  0  0  0  0  0  0  0  0  0
   -0.9091   -0.6605    0.0000 C   0  0  0  0  0  0  0  0  0  0  0  0
  1  2  1  0  0  0  0
  2  3  1  0  0  0  0
  3  4  1  0  0  0  0
  4  5  2  0  0  0  0
  4  6  1  0  0  0  0
  6  7  4  0  0  0  0
  7  8  4  0  0  0  0
  8  9  1  0  0  0  0
  9 10  1  0  0  0  0
 10 11  4  0  0  0  0
 11 12  4  0  0  0  0
 12 13  4  0  0  0  0
 13 14  1  0  0  0  0
 13 15  4  0  0  0  0
 15 16  1  0  0  0  0
 15 17  4  0  0  0  0
 10 17  4  0  0  0  0
  8 18  4  0  0  0  0
 18 19  4  0  0  0  0
  6 19  4  0  0  0  0
 19 20  1  0  0  0  0
 20 21  4  0  0  0  0
 21 22  4  0  0  0  0
 22 23  4  0  0  0  0
 23 24  4  0  0  0  0
 24 25  4  0  0  0  0
 20 25  4  0  0  0  0
M  END
> <IC50(uM)>
0.058

> <Outcome>
1.0

> <BindingDB ID>
50312271

> <BindingDB MonomerID>
50071624

> <BindingDB Ligand Name>
CHEMBL3410594

> <Curation/DataSource>
ChEMBL

> <Article DOI>
10.1021/jm501127s

> <PMID>
25580811

> <Patent Number>
?

> <Authors>
Zhu, J; Han, L; Diao, Y; Ren, X; Xu, M; Xu, L; Li, S; Li, Q; Dong, D; Huang, J; Liu, X; Zhao, Z; Wang, R; Zhu, L; Xu, Y; Qian, X; Li, H

> <Link to Ligand in BindingDB>
http://www.bindingdb.org/bind/chemsearch/marvin/MolStructure.jsp?monomerid=50071624

> <Link to Ligand-Target Pair in BindingDB>
http://www.bindingdb.org/jsp/dbsearch/PrimarySearch_ki.jsp?energyterm=kJ/mole&tag=r21&monomerid=50071624&enzyme=Dihydroorotate+dehydrogenase&column=ki&startPg=0&Increment=50&submit=Search

> <PubChem CID>
118096600

> <PubChem SID>
313072556

$$$$

  Mrv2115 07222212352D          

 26 29  0  0  0  0            999 V2000
    1.4289   -2.4750    0.0000 O   0  0  0  0  0  0  0  0  0  0  0  0
    1.4289   -1.6500    0.0000 C   0  0  0  0  0  0  0  0  0  0  0  0
    0.7145   -1.2375    0.0000 C   0  0  0  0  0  0  0  0  0  0  0  0
    0.0000   -1.6500    0.0000 O   0  0  0  0  0  0  0  0  0  0  0  0
    0.7145   -0.4125    0.0000 C   0  0  0  0  0  0  0  0  0  0  0  0
    0.0000    0.0000    0.0000 N   0  0  0  0  0  0  0  0  0  0  0  0
   -0.7145   -0.4125    0.0000 C   0  0  0  0  0  0  0  0  0  0  0  0
   -1.4289    0.0000    0.0000 C   0  0  0  0  0  0  0  0  0  0  0  0
   -1.4289    0.8250    0.0000 N   0  0  0  0  0  0  0  0  0  0  0  0
   -2.1434    1.2375    0.0000 C   0  0  0  0  0  0  0  0  0  0  0  0
   -2.8579    0.8250    0.0000 C   0  0  0  0  0  0  0  0  0  0  0  0
   -3.5724    1.2375    0.0000 C   0  0  0  0  0  0  0  0  0  0  0  0
   -3.5724    2.0625    0.0000 C   0  0  0  0  0  0  0  0  0  0  0  0
   -4.2868    2.4750    0.0000 Cl  0  0  0  0  0  0  0  0  0  0  0  0
   -2.8579    2.4750    0.0000 C   0  0  0  0  0  0  0  0  0  0  0  0
   -2.1434    2.0625    0.0000 C   0  0  0  0  0  0  0  0  0  0  0  0
   -0.7145    1.2375    0.0000 C   0  0  0  0  0  0  0  0  0  0  0  0
    0.0000    0.8250    0.0000 C   0  0  0  0  0  0  0  0  0  0  0  0
    1.4289    0.0000    0.0000 C   0  0  0  0  0  0  0  0  0  0  0  0
    1.4289    0.8250    0.0000 O   0  0  0  0  0  0  0  0  0  0  0  0
    2.1434   -0.4125    0.0000 C   0  0  0  0  0  0  0  0  0  0  0  0
    2.8579    0.0000    0.0000 C   0  0  0  0  0  0  0  0  0  0  0  0
    3.5724   -0.4125    0.0000 C   0  0  0  0  0  0  0  0  0  0  0  0
    3.5724   -1.2375    0.0000 C   0  0  0  0  0  0  0  0  0  0  0  0
    2.8579   -1.6500    0.0000 C   0  0  0  0  0  0  0  0  0  0  0  0
    2.1434   -1.2375    0.0000 C   0  0  0  0  0  0  0  0  0  0  0  0
  1  2  2  0  0  0  0
  2  3  1  0  0  0  0
  3  4  1  0  0  0  0
  3  5  2  0  0  0  0
  5  6  1  0  0  0  0
  6  7  1  0  0  0  0
  7  8  1  0  0  0  0
  8  9  1  0  0  0  0
  9 10  1  0  0  0  0
 10 11  4  0  0  0  0
 11 12  4  0  0  0  0
 12 13  4  0  0  0  0
 13 14  1  0  0  0  0
 13 15  4  0  0  0  0
 15 16  4  0  0  0  0
 10 16  4  0  0  0  0
  9 17  1  0  0  0  0
 17 18  1  0  0  0  0
  6 18  1  0  0  0  0
  5 19  1  0  0  0  0
 19 20  2  0  0  0  0
 19 21  1  0  0  0  0
 21 22  4  0  0  0  0
 22 23  4  0  0  0  0
 23 24  4  0  0  0  0
 24 25  4  0  0  0  0
 25 26  4  0  0  0  0
 21 26  4  0  0  0  0
  2 26  1  0  0  0  0
M  END
> <IC50(uM)>
4.6

> <Outcome>
0.0

> <BindingDB ID>
51282859

> <BindingDB MonomerID>
50523224

> <BindingDB Ligand Name>
CHEMBL4474026

> <Curation/DataSource>
ChEMBL

> <Article DOI>
10.1016/j.ejmech.2019.02.018

> <PMID>
30776695

> <Patent Number>
?

> <Authors>
Calil, FA; David, JS; Chiappetta, ERC; Fumagalli, F; Mello, RB; Leite, FHA; Castilho, MS; Emery, FS; Nonato, MC

> <Link to Ligand in BindingDB>
http://www.bindingdb.org/bind/chemsearch/marvin/MolStructure.jsp?monomerid=50523224

> <Link to Ligand-Target Pair in BindingDB>
http://www.bindingdb.org/jsp/dbsearch/PrimarySearch_ki.jsp?energyterm=kJ/mole&tag=r21&monomerid=50523224&enzyme=Dihydroorotate+dehydrogenase&column=ki&startPg=0&Increment=50&submit=Search

> <PubChem CID>
155536717

> <PubChem SID>
440731806

$$$$

  Mrv2115 07222212352D          

 18 19  0  0  0  0            999 V2000
    1.4289   -1.6500    0.0000 C   0  0  0  0  0  0  0  0  0  0  0  0
    1.4289   -2.4750    0.0000 N   0  0  0  0  0  0  0  0  0  0  0  0
    2.0964   -2.9599    0.0000 N   0  0  0  0  0  0  0  0  0  0  0  0
    1.8414   -3.7445    0.0000 C   0  0  0  0  0  0  0  0  0  0  0  0
    2.3264   -4.4120    0.0000 O   0  0  0  0  0  0  0  0  0  0  0  0
    1.0164   -3.7445    0.0000 C   0  0  0  0  0  0  0  0  0  0  0  0
    0.5315   -4.4120    0.0000 C   0  0  0  0  0  0  0  0  0  0  0  0
   -0.2890   -4.3257    0.0000 O   0  0  0  0  0  0  0  0  0  0  0  0
    0.8671   -5.1657    0.0000 O   0  0  0  0  0  0  0  0  0  0  0  0
    0.7615   -2.9599    0.0000 C   0  0  0  0  0  0  0  0  0  0  0  0
   -0.0231   -2.7050    0.0000 C   0  0  0  0  0  0  0  0  0  0  0  0
   -0.6362   -3.2570    0.0000 N   0  0  0  0  0  0  0  0  0  0  0  0
   -1.4208   -3.0021    0.0000 C   0  0  0  0  0  0  0  0  0  0  0  0
   -2.0339   -3.5541    0.0000 C   0  0  0  0  0  0  0  0  0  0  0  0
   -2.8186   -3.2992    0.0000 C   0  0  0  0  0  0  0  0  0  0  0  0
   -2.9901   -2.4922    0.0000 C   0  0  0  0  0  0  0  0  0  0  0  0
   -2.3770   -1.9402    0.0000 C   0  0  0  0  0  0  0  0  0  0  0  0
   -1.5924   -2.1951    0.0000 C   0  0  0  0  0  0  0  0  0  0  0  0
  1  2  1  0  0  0  0
  2  3  4  0  0  0  0
  3  4  4  0  0  0  0
  4  5  1  0  0  0  0
  4  6  4  0  0  0  0
  6  7  1  0  0  0  0
  7  8  2  0  0  0  0
  7  9  1  0  0  0  0
  6 10  4  0  0  0  0
  2 10  4  0  0  0  0
 10 11  1  0  0  0  0
 11 12  1  0  0  0  0
 12 13  1  0  0  0  0
 13 14  4  0  0  0  0
 14 15  4  0  0  0  0
 15 16  4  0  0  0  0
 16 17  4  0  0  0  0
 17 18  4  0  0  0  0
 13 18  4  0  0  0  0
M  END
> <IC50(uM)>
250.0

> <Outcome>
0.0

> <BindingDB ID>
51241005

> <BindingDB MonomerID>
50507737

> <BindingDB Ligand Name>
CHEMBL4514989

> <Curation/DataSource>
ChEMBL

> <Article DOI>
10.1016/j.ejmech.2018.11.044

> <PMID>
30529545

> <Patent Number>
?

> <Authors>
Pippione, AC; Sainas, S; Goyal, P; Fritzson, I; Cassiano, GC; Giraudo, A; Giorgis, M; Tavella, TA; Bagnati, R; Rolando, B; Caing-Carlsson, R; Costa, FTM; Andrade, CH; Al-Karadaghi, S; Boschi, D; Friemann, R; Lolli, ML

> <Link to Ligand in BindingDB>
http://www.bindingdb.org/bind/chemsearch/marvin/MolStructure.jsp?monomerid=50507737

> <Link to Ligand-Target Pair in BindingDB>
http://www.bindingdb.org/jsp/dbsearch/PrimarySearch_ki.jsp?energyterm=kJ/mole&tag=r21&monomerid=50507737&enzyme=Dihydroorotate+dehydrogenase&column=ki&startPg=0&Increment=50&submit=Search

> <PubChem CID>
155539527

> <PubChem SID>
440716322

$$$$

  Mrv2115 07222212352D          

 17 17  0  0  0  0            999 V2000
    0.0000   -2.4750    0.0000 C   0  0  0  0  0  0  0  0  0  0  0  0
    0.7145   -2.8875    0.0000 C   0  0  0  0  0  0  0  0  0  0  0  0
    0.7145   -3.7125    0.0000 O   0  0  0  0  0  0  0  0  0  0  0  0
    1.4289   -2.4750    0.0000 C   0  0  0  0  0  0  0  0  0  0  0  0
    1.4289   -1.6500    0.0000 C   0  0  0  0  0  0  0  0  0  0  0  0
    1.4289   -0.8250    0.0000 N   0  0  0  0  0  0  0  0  0  0  0  0
    2.1434   -2.8875    0.0000 C   0  0  0  0  0  0  0  0  0  0  0  0
    2.1434   -3.7125    0.0000 O   0  0  0  0  0  0  0  0  0  0  0  0
    2.8579   -2.4750    0.0000 N   0  0  0  0  0  0  0  0  0  0  0  0
    3.5724   -2.8875    0.0000 C   0  0  0  0  0  0  0  0  0  0  0  0
    4.2868   -2.4750    0.0000 C   0  0  0  0  0  0  0  0  0  0  0  0
    5.0013   -2.8875    0.0000 C   0  0  0  0  0  0  0  0  0  0  0  0
    5.0013   -3.7125    0.0000 C   0  0  0  0  0  0  0  0  0  0  0  0
    5.7158   -4.1250    0.0000 C   0  0  0  0  0  0  0  0  0  0  0  0
    6.4302   -4.5375    0.0000 N   0  0  0  0  0  0  0  0  0  0  0  0
    4.2868   -4.1250    0.0000 C   0  0  0  0  0  0  0  0  0  0  0  0
    3.5724   -3.7125    0.0000 C   0  0  0  0  0  0  0  0  0  0  0  0
  1  2  1  0  0  0  0
  2  3  2  0  0  0  0
  2  4  1  0  0  0  0
  4  5  1  0  0  0  0
  5  6  3  0  0  0  0
  4  7  1  0  0  0  0
  7  8  2  0  0  0  0
  7  9  1  0  0  0  0
  9 10  1  0  0  0  0
 10 11  4  0  0  0  0
 11 12  4  0  0  0  0
 12 13  4  0  0  0  0
 13 14  1  0  0  0  0
 14 15  3  0  0  0  0
 13 16  4  0  0  0  0
 16 17  4  0  0  0  0
 10 17  4  0  0  0  0
M  END
> <IC50(uM)>
1.3

> <Outcome>
0.0

> <BindingDB ID>
176939

> <BindingDB MonomerID>
85302

> <BindingDB Ligand Name>
Alpha-cyano-beta-hydroxy enamide, 3

> <Curation/DataSource>
Curated from the literature by BindingDB

> <Article DOI>
?

> <PMID>
?

> <Patent Number>
?

> <Authors>
Papagergiou, C; Zurini, M; Weber, HP; Borer, X

> <Link to Ligand in BindingDB>
http://www.bindingdb.org/bind/chemsearch/marvin/MolStructure.jsp?monomerid=85302

> <Link to Ligand-Target Pair in BindingDB>
http://www.bindingdb.org/jsp/dbsearch/PrimarySearch_ki.jsp?energyterm=kJ/mole&tag=r21&monomerid=85302&enzyme=Dihydroorotate+dehydrogenase&column=ki&startPg=0&Increment=50&submit=Search

> <PubChem CID>
91898955

> <PubChem SID>
136351402

$$$$

  Mrv2115 07222212352D          

 36 39  0  0  0  0            999 V2000
    2.3167   -5.1890    0.0000 C   0  0  0  0  0  0  0  0  0  0  0  0
    1.7036   -5.7410    0.0000 C   0  0  0  0  0  0  0  0  0  0  0  0
    0.9190   -5.4861    0.0000 C   0  0  0  0  0  0  0  0  0  0  0  0
    0.6640   -4.7015    0.0000 N   0  0  0  0  0  0  0  0  0  0  0  0
   -0.1610   -4.7015    0.0000 N   0  0  0  0  0  0  0  0  0  0  0  0
   -0.6459   -4.0340    0.0000 C   0  0  0  0  0  0  0  0  0  0  0  0
   -1.4664   -4.1203    0.0000 C   0  0  0  0  0  0  0  0  0  0  0  0
   -1.9513   -3.4528    0.0000 C   0  0  0  0  0  0  0  0  0  0  0  0
   -2.7718   -3.5391    0.0000 O   0  0  0  0  0  0  0  0  0  0  0  0
   -3.1073   -4.2927    0.0000 C   0  0  0  0  0  0  0  0  0  0  0  0
   -2.6224   -4.9602    0.0000 C   0  0  0  0  0  0  0  0  0  0  0  0
   -3.9278   -4.3790    0.0000 C   0  0  0  0  0  0  0  0  0  0  0  0
   -4.0140   -3.5585    0.0000 F   0  0  0  0  0  0  0  0  0  0  0  0
   -3.8416   -5.1995    0.0000 F   0  0  0  0  0  0  0  0  0  0  0  0
   -4.7483   -4.4652    0.0000 F   0  0  0  0  0  0  0  0  0  0  0  0
   -1.6157   -2.6992    0.0000 C   0  0  0  0  0  0  0  0  0  0  0  0
   -2.1006   -2.0317    0.0000 C   0  0  0  0  0  0  0  0  0  0  0  0
   -1.7651   -1.2780    0.0000 O   0  0  0  0  0  0  0  0  0  0  0  0
   -2.9211   -2.1180    0.0000 N   0  0  0  0  0  0  0  0  0  0  0  0
   -3.4060   -1.4505    0.0000 C   0  0  0  0  0  0  0  0  0  0  0  0
   -4.2265   -1.5367    0.0000 C   0  0  0  0  0  0  0  0  0  0  0  0
   -4.5621   -2.2904    0.0000 F   0  0  0  0  0  0  0  0  0  0  0  0
   -4.7114   -0.8693    0.0000 C   0  0  0  0  0  0  0  0  0  0  0  0
   -4.3759   -0.1156    0.0000 C   0  0  0  0  0  0  0  0  0  0  0  0
   -3.5554   -0.0294    0.0000 C   0  0  0  0  0  0  0  0  0  0  0  0
   -3.0705   -0.6968    0.0000 C   0  0  0  0  0  0  0  0  0  0  0  0
   -2.2500   -0.6106    0.0000 F   0  0  0  0  0  0  0  0  0  0  0  0
   -0.7952   -2.6129    0.0000 C   0  0  0  0  0  0  0  0  0  0  0  0
   -0.3103   -3.2804    0.0000 C   0  0  0  0  0  0  0  0  0  0  0  0
    0.5102   -3.1941    0.0000 F   0  0  0  0  0  0  0  0  0  0  0  0
   -0.4159   -5.4861    0.0000 C   0  0  0  0  0  0  0  0  0  0  0  0
   -1.2005   -5.7410    0.0000 O   0  0  0  0  0  0  0  0  0  0  0  0
    0.2515   -5.9710    0.0000 N   0  0  0  0  0  0  0  0  0  0  0  0
    0.2515   -6.7960    0.0000 C   0  0  0  0  0  0  0  0  0  0  0  0
    0.6640   -7.5105    0.0000 C   0  0  0  0  0  0  0  0  0  0  0  0
   -0.1610   -7.5105    0.0000 C   0  0  0  0  0  0  0  0  0  0  0  0
  1  2  1  0  0  0  0
  2  3  1  0  0  0  0
  3  4  4  0  0  0  0
  4  5  4  0  0  0  0
  5  6  1  0  0  0  0
  6  7  4  0  0  0  0
  7  8  4  0  0  0  0
  8  9  1  0  0  0  0
  9 10  1  0  0  0  0
 10 11  1  0  0  0  0
 10 12  1  0  0  0  0
 12 13  1  0  0  0  0
 12 14  1  0  0  0  0
 12 15  1  0  0  0  0
  8 16  4  0  0  0  0
 16 17  1  0  0  0  0
 17 18  2  0  0  0  0
 17 19  1  0  0  0  0
 19 20  1  0  0  0  0
 20 21  4  0  0  0  0
 21 22  1  0  0  0  0
 21 23  4  0  0  0  0
 23 24  4  0  0  0  0
 24 25  4  0  0  0  0
 25 26  4  0  0  0  0
 20 26  4  0  0  0  0
 26 27  1  0  0  0  0
 16 28  4  0  0  0  0
 28 29  4  0  0  0  0
  6 29  4  0  0  0  0
 29 30  1  0  0  0  0
  5 31  4  0  0  0  0
 31 32  2  0  0  0  0
 31 33  4  0  0  0  0
  3 33  4  0  0  0  0
 33 34  1  0  0  0  0
 34 35  1  0  0  0  0
 35 36  1  0  0  0  0
 34 36  1  0  0  0  0
M  END
> <IC50(uM)>
0.45

> <Outcome>
1.0

> <BindingDB ID>
1098683; 972529

> <BindingDB MonomerID>
470404

> <BindingDB Ligand Name>
4-(4-cyclopropyl-3-ethyl-5-oxo-4,5-dihydro-1H-1,2,4-triazol-1-yl)-N-(2,6-difluorophenyl)-5-fluoro-2-{[(2S)-1,1,1-trifluoropropan-2-yl]oxy}benzamide::US10815215, Example 63::US11130745, Example 63; 4-(4-cyclopropyl-3-ethyl-5-oxo-4,5-dihydro-1H-1,2,4-triazol-1-yl)-N-(2,6-difluorophenyl)-5-fluoro-2-{[(2S)-1,1,1-trifluoropropan-2-yl]oxy}benzamide::US10815215, Example 63

> <Curation/DataSource>
US Patent

> <Article DOI>
?

> <PMID>
?

> <Patent Number>
US11130745; US10815215

> <Authors>
Gradl, SN; Nguyen, D; Eis, K; Gunther, J; Stellfeld, T; Janzer, A; Christian, S; Muller, T; Sheikh, SE; Sykes, DB; Ferrara, SJ; Krober, M; Merz, C; Niehues, M; Schafer, M; Zimmermann, K; Nising, CF; Gradl, SN; Nguyen, D; Eis, K; Gunther, J; Stellfeld, T; Janzer, A; Christian, S; Muller, T; Sheikh, SE; Zhou, HJ; Zhao, C; Sykes, DB; Ferrara, SJ; Liu, K; Krober, M; Merz, C; Niehues, M; Schafer, M; Zimmermann, K; Nising, CF

> <Link to Ligand in BindingDB>
http://www.bindingdb.org/bind/chemsearch/marvin/MolStructure.jsp?monomerid=470404

> <Link to Ligand-Target Pair in BindingDB>
http://www.bindingdb.org/jsp/dbsearch/PrimarySearch_ki.jsp?energyterm=kJ/mole&tag=r21&monomerid=470404&enzyme=Dihydroorotate+dehydrogenase&column=ki&startPg=0&Increment=50&submit=Search

> <PubChem CID>
134470156

> <PubChem SID>
441609581

$$$$

  Mrv2115 07222212352D          

 17 18  0  0  0  0            999 V2000
    1.4289    0.0000    0.0000 O   0  0  0  0  0  0  0  0  0  0  0  0
    2.1434   -0.4125    0.0000 C   0  0  0  0  0  0  0  0  0  0  0  0
    2.8579    0.0000    0.0000 O   0  0  0  0  0  0  0  0  0  0  0  0
    2.1434   -1.2375    0.0000 C   0  0  0  0  0  0  0  0  0  0  0  0
    1.4289   -1.6500    0.0000 C   0  0  0  0  0  0  0  0  0  0  0  0
    1.4289   -2.4750    0.0000 C   0  0  0  0  0  0  0  0  0  0  0  0
    2.1434   -2.8875    0.0000 C   0  0  0  0  0  0  0  0  0  0  0  0
    2.8579   -2.4750    0.0000 C   0  0  0  0  0  0  0  0  0  0  0  0
    2.8579   -1.6500    0.0000 C   0  0  0  0  0  0  0  0  0  0  0  0
    3.5724   -1.2375    0.0000 N   0  0  0  0  0  0  0  0  0  0  0  0
    4.2868   -1.6500    0.0000 C   0  0  0  0  0  0  0  0  0  0  0  0
    5.0013   -1.2375    0.0000 C   0  0  0  0  0  0  0  0  0  0  0  0
    5.7158   -1.6500    0.0000 C   0  0  0  0  0  0  0  0  0  0  0  0
    5.7158   -2.4750    0.0000 C   0  0  0  0  0  0  0  0  0  0  0  0
    6.4302   -2.8875    0.0000 Cl  0  0  0  0  0  0  0  0  0  0  0  0
    5.0013   -2.8875    0.0000 C   0  0  0  0  0  0  0  0  0  0  0  0
    4.2868   -2.4750    0.0000 C   0  0  0  0  0  0  0  0  0  0  0  0
  1  2  2  0  0  0  0
  2  3  1  0  0  0  0
  2  4  1  0  0  0  0
  4  5  4  0  0  0  0
  5  6  4  0  0  0  0
  6  7  4  0  0  0  0
  7  8  4  0  0  0  0
  8  9  4  0  0  0  0
  4  9  4  0  0  0  0
  9 10  1  0  0  0  0
 10 11  1  0  0  0  0
 11 12  4  0  0  0  0
 12 13  4  0  0  0  0
 13 14  4  0  0  0  0
 14 15  1  0  0  0  0
 14 16  4  0  0  0  0
 16 17  4  0  0  0  0
 11 17  4  0  0  0  0
M  END
> <IC50(uM)>
0.42

> <Outcome>
1.0

> <BindingDB ID>
50527774

> <BindingDB MonomerID>
50385716

> <BindingDB Ligand Name>
CHEMBL2043303

> <Curation/DataSource>
ChEMBL

> <Article DOI>
10.1021/acsmedchemlett.6b00316

> <PMID>
27994748

> <Patent Number>
?

> <Authors>
Lewis, TA; Sykes, DB; Law, JM; Mu??oz, B; Rustiguel, JK; Nonato, MC; Scadden, DT; Schreiber, SL

> <Link to Ligand in BindingDB>
http://www.bindingdb.org/bind/chemsearch/marvin/MolStructure.jsp?monomerid=50385716

> <Link to Ligand-Target Pair in BindingDB>
http://www.bindingdb.org/jsp/dbsearch/PrimarySearch_ki.jsp?energyterm=kJ/mole&tag=r21&monomerid=50385716&enzyme=Dihydroorotate+dehydrogenase&column=ki&startPg=0&Increment=50&submit=Search

> <PubChem CID>
459316

> <PubChem SID>
160864799

$$$$

  Mrv2115 07222212352D          

 27 29  0  0  0  0            999 V2000
   -2.1434   -1.2375    0.0000 C   0  0  0  0  0  0  0  0  0  0  0  0
   -1.4289   -1.6500    0.0000 O   0  0  0  0  0  0  0  0  0  0  0  0
   -0.7145   -1.2375    0.0000 C   0  0  0  0  0  0  0  0  0  0  0  0
    0.0000   -1.6500    0.0000 O   0  0  0  0  0  0  0  0  0  0  0  0
    0.7145   -1.2375    0.0000 C   0  0  0  0  0  0  0  0  0  0  0  0
    0.7145   -0.4125    0.0000 C   0  0  0  0  0  0  0  0  0  0  0  0
    1.4289    0.0000    0.0000 C   0  0  0  0  0  0  0  0  0  0  0  0
    2.1434   -0.4125    0.0000 C   0  0  0  0  0  0  0  0  0  0  0  0
    2.8579    0.0000    0.0000 C   0  0  0  0  0  0  0  0  0  0  0  0
    3.5724   -0.4125    0.0000 C   0  0  0  0  0  0  0  0  0  0  0  0
    3.5724   -1.2375    0.0000 C   0  0  0  0  0  0  0  0  0  0  0  0
    4.2868   -1.6500    0.0000 C   0  0  0  0  0  0  0  0  0  0  0  0
    5.0013   -1.2375    0.0000 C   0  0  0  0  0  0  0  0  0  0  0  0
    5.7158   -1.6500    0.0000 C   0  0  0  0  0  0  0  0  0  0  0  0
    6.4302   -1.2375    0.0000 C   0  0  0  0  0  0  0  0  0  0  0  0
    6.4302   -0.4125    0.0000 C   0  0  0  0  0  0  0  0  0  0  0  0
    7.1447   -0.0000    0.0000 O   0  0  0  0  0  0  0  0  0  0  0  0
    5.7158   -0.0000    0.0000 O   0  0  0  0  0  0  0  0  0  0  0  0
    7.1447   -1.6500    0.0000 N   0  0  0  0  0  0  0  0  0  0  0  0
    7.1447   -2.4750    0.0000 C   0  0  0  0  0  0  0  0  0  0  0  0
    7.8592   -2.8875    0.0000 O   0  0  0  0  0  0  0  0  0  0  0  0
    6.4302   -2.8875    0.0000 N   0  0  0  0  0  0  0  0  0  0  0  0
    5.7158   -2.4750    0.0000 C   0  0  0  0  0  0  0  0  0  0  0  0
    5.0013   -2.8875    0.0000 O   0  0  0  0  0  0  0  0  0  0  0  0
    2.8579   -1.6500    0.0000 C   0  0  0  0  0  0  0  0  0  0  0  0
    2.1434   -1.2375    0.0000 C   0  0  0  0  0  0  0  0  0  0  0  0
    1.4289   -1.6500    0.0000 C   0  0  0  0  0  0  0  0  0  0  0  0
  1  2  1  0  0  0  0
  2  3  1  0  0  0  0
  3  4  1  0  0  0  0
  4  5  1  0  0  0  0
  5  6  4  0  0  0  0
  6  7  4  0  0  0  0
  7  8  4  0  0  0  0
  8  9  4  0  0  0  0
  9 10  4  0  0  0  0
 10 11  4  0  0  0  0
 11 12  1  0  0  0  0
 12 13  1  0  0  0  0
 13 14  1  0  0  0  0
 14 15  4  0  0  0  0
 15 16  1  0  0  0  0
 16 17  2  0  0  0  0
 16 18  1  0  0  0  0
 15 19  4  0  0  0  0
 19 20  4  0  0  0  0
 20 21  2  0  0  0  0
 20 22  4  0  0  0  0
 22 23  4  0  0  0  0
 14 23  4  0  0  0  0
 23 24  2  0  0  0  0
 11 25  4  0  0  0  0
 25 26  4  0  0  0  0
  8 26  4  0  0  0  0
 26 27  4  0  0  0  0
  5 27  4  0  0  0  0
M  STY  2   1 DAT   2 DAT
M  SAL   1  1  19
M  SDT   1 MRV_IMPLICIT_H                                        
M  SDD   1     0.5304   -0.4125    DR    ALL  0       0  
M  SED   1 IMPL_H1
M  SAL   2  1  22
M  SDT   2 MRV_IMPLICIT_H                                        
M  SDD   2     0.6482   -0.4125    DR    ALL  0       0  
M  SED   2 IMPL_H1
M  END
> <IC50(uM)>
0.032

> <Outcome>
1.0

> <BindingDB ID>
50555329

> <BindingDB MonomerID>
50211710

> <BindingDB Ligand Name>
CHEMBL3936361

> <Curation/DataSource>
ChEMBL

> <Article DOI>
10.1016/j.bmc.2017.01.009

> <PMID>
28118956

> <Patent Number>
?

> <Authors>
Inaoka, DK; Iida, M; Hashimoto, S; Tabuchi, T; Kuranaga, T; Balogun, EO; Honma, T; Tanaka, A; Harada, S; Nara, T; Kita, K; Inoue, M

> <Link to Ligand in BindingDB>
http://www.bindingdb.org/bind/chemsearch/marvin/MolStructure.jsp?monomerid=50211710

> <Link to Ligand-Target Pair in BindingDB>
http://www.bindingdb.org/jsp/dbsearch/PrimarySearch_ki.jsp?energyterm=kJ/mole&tag=r21&monomerid=50211710&enzyme=Dihydroorotate+dehydrogenase&column=ki&startPg=0&Increment=50&submit=Search

> <PubChem CID>
134148792

> <PubChem SID>
375983053

$$$$

  Mrv2115 07222212352D          

 19 20  0  0  0  0            999 V2000
    2.0367   -0.4741    0.0000 C   0  0  0  0  0  0  0  0  0  0  0  0
    2.0367   -1.2991    0.0000 C   0  0  0  0  0  0  0  0  0  0  0  0
    2.7041   -1.7840    0.0000 N   0  0  0  0  0  0  0  0  0  0  0  0
    2.4492   -2.5687    0.0000 N   0  0  0  0  0  0  0  0  0  0  0  0
    1.6242   -2.5687    0.0000 C   0  0  0  0  0  0  0  0  0  0  0  0
    1.1393   -3.2361    0.0000 N   0  0  0  0  0  0  0  0  0  0  0  0
    0.3188   -3.1499    0.0000 C   0  0  0  0  0  0  0  0  0  0  0  0
   -0.1661   -3.8173    0.0000 C   0  0  0  0  0  0  0  0  0  0  0  0
   -0.9866   -3.7311    0.0000 C   0  0  0  0  0  0  0  0  0  0  0  0
   -1.3222   -2.9774    0.0000 C   0  0  0  0  0  0  0  0  0  0  0  0
   -2.1426   -2.8911    0.0000 C   0  0  0  0  0  0  0  0  0  0  0  0
   -2.9631   -2.8049    0.0000 F   0  0  0  0  0  0  0  0  0  0  0  0
   -2.0564   -2.0707    0.0000 F   0  0  0  0  0  0  0  0  0  0  0  0
   -2.2289   -3.7116    0.0000 F   0  0  0  0  0  0  0  0  0  0  0  0
   -0.8372   -2.3099    0.0000 C   0  0  0  0  0  0  0  0  0  0  0  0
   -0.0168   -2.3962    0.0000 C   0  0  0  0  0  0  0  0  0  0  0  0
    1.3693   -1.7840    0.0000 C   0  0  0  0  0  0  0  0  0  0  0  0
    0.5846   -1.5291    0.0000 C   0  0  0  0  0  0  0  0  0  0  0  0
    0.4131   -0.7221    0.0000 O   0  0  0  0  0  0  0  0  0  0  0  0
  1  2  1  0  0  0  0
  2  3  4  0  0  0  0
  3  4  4  0  0  0  0
  4  5  4  0  0  0  0
  5  6  1  0  0  0  0
  6  7  1  0  0  0  0
  7  8  4  0  0  0  0
  8  9  4  0  0  0  0
  9 10  4  0  0  0  0
 10 11  1  0  0  0  0
 11 12  1  0  0  0  0
 11 13  1  0  0  0  0
 11 14  1  0  0  0  0
 10 15  4  0  0  0  0
 15 16  4  0  0  0  0
  7 16  4  0  0  0  0
  5 17  4  0  0  0  0
  2 17  4  0  0  0  0
 17 18  1  0  0  0  0
 18 19  1  0  0  0  0
M  STY  1   1 DAT
M  SAL   1  1   4
M  SDT   1 MRV_IMPLICIT_H                                        
M  SDD   1     0.5304   -0.4125    DR    ALL  0       0  
M  SED   1 IMPL_H1
M  END
> <IC50(uM)>
2.7

> <Outcome>
0.0

> <BindingDB ID>
50786782

> <BindingDB MonomerID>
50066591

> <BindingDB Ligand Name>
CHEMBL118894::[5-Methyl-3-(4-trifluoromethyl-phenylamino)-1H-pyrazol-4-yl]-methanol

> <Curation/DataSource>
ChEMBL

> <Article DOI>
10.1021/jm981028c

> <PMID>
9719606

> <Patent Number>
?

> <Authors>
Papageorgiou, C; Albert, R; Floersheim, P; Lemaire, M; Bitch, F; Weber, HP; Andersen, E; Hungerford, V; Schreier, MH

> <Link to Ligand in BindingDB>
http://www.bindingdb.org/bind/chemsearch/marvin/MolStructure.jsp?monomerid=50066591

> <Link to Ligand-Target Pair in BindingDB>
http://www.bindingdb.org/jsp/dbsearch/PrimarySearch_ki.jsp?energyterm=kJ/mole&tag=r21&monomerid=50066591&enzyme=Dihydroorotate+dehydrogenase&column=ki&startPg=0&Increment=50&submit=Search

> <PubChem CID>
10635802

> <PubChem SID>
103961211

$$$$

  Mrv2115 07222212352D          

 31 34  0  0  0  0            999 V2000
    0.0000   -2.4750    0.0000 C   0  0  0  0  0  0  0  0  0  0  0  0
    0.0000   -1.6500    0.0000 O   0  0  0  0  0  0  0  0  0  0  0  0
    0.7145   -1.2375    0.0000 C   0  0  0  0  0  0  0  0  0  0  0  0
    0.7145   -0.4125    0.0000 C   0  0  0  0  0  0  0  0  0  0  0  0
    1.4289    0.0000    0.0000 C   0  0  0  0  0  0  0  0  0  0  0  0
    2.1434   -0.4125    0.0000 C   0  0  0  0  0  0  0  0  0  0  0  0
    2.8579    0.0000    0.0000 N   0  0  0  0  0  0  0  0  0  0  0  0
    3.5724   -0.4125    0.0000 C   0  0  0  0  0  0  0  0  0  0  0  0
    4.2868   -0.0000    0.0000 C   0  0  0  0  0  0  0  0  0  0  0  0
    5.0013   -0.4125    0.0000 O   0  0  0  0  0  0  0  0  0  0  0  0
    4.2868    0.8250    0.0000 N   0  0  0  0  0  0  0  0  0  0  0  0
    5.0013    1.2375    0.0000 C   0  0  0  0  0  0  0  0  0  0  0  0
    5.0013    2.0625    0.0000 C   0  0  0  0  0  0  0  0  0  0  0  0
    5.7158    2.4750    0.0000 C   0  0  0  0  0  0  0  0  0  0  0  0
    6.4302    2.0625    0.0000 C   0  0  0  0  0  0  0  0  0  0  0  0
    7.1447    2.4750    0.0000 C   0  0  0  0  0  0  0  0  0  0  0  0
    7.1447    3.3000    0.0000 C   0  0  0  0  0  0  0  0  0  0  0  0
    7.8592    3.7125    0.0000 C   0  0  0  0  0  0  0  0  0  0  0  0
    8.5737    3.3000    0.0000 C   0  0  0  0  0  0  0  0  0  0  0  0
    8.5737    2.4750    0.0000 C   0  0  0  0  0  0  0  0  0  0  0  0
    7.8592    2.0625    0.0000 C   0  0  0  0  0  0  0  0  0  0  0  0
    6.4302    1.2375    0.0000 C   0  0  0  0  0  0  0  0  0  0  0  0
    5.7158    0.8250    0.0000 C   0  0  0  0  0  0  0  0  0  0  0  0
    3.5724   -1.2375    0.0000 C   0  0  0  0  0  0  0  0  0  0  0  0
    4.2868   -1.6500    0.0000 C   0  0  0  0  0  0  0  0  0  0  0  0
    2.8579   -1.6500    0.0000 C   0  0  0  0  0  0  0  0  0  0  0  0
    2.8579   -2.4750    0.0000 C   0  0  0  0  0  0  0  0  0  0  0  0
    2.1434   -2.8875    0.0000 O   0  0  0  0  0  0  0  0  0  0  0  0
    3.5724   -2.8875    0.0000 O   0  0  0  0  0  0  0  0  0  0  0  0
    2.1434   -1.2375    0.0000 C   0  0  0  0  0  0  0  0  0  0  0  0
    1.4289   -1.6500    0.0000 C   0  0  0  0  0  0  0  0  0  0  0  0
  1  2  1  0  0  0  0
  2  3  1  0  0  0  0
  3  4  4  0  0  0  0
  4  5  4  0  0  0  0
  5  6  4  0  0  0  0
  6  7  4  0  0  0  0
  7  8  4  0  0  0  0
  8  9  1  0  0  0  0
  9 10  2  0  0  0  0
  9 11  1  0  0  0  0
 11 12  1  0  0  0  0
 12 13  4  0  0  0  0
 13 14  4  0  0  0  0
 14 15  4  0  0  0  0
 15 16  1  0  0  0  0
 16 17  4  0  0  0  0
 17 18  4  0  0  0  0
 18 19  4  0  0  0  0
 19 20  4  0  0  0  0
 20 21  4  0  0  0  0
 16 21  4  0  0  0  0
 15 22  4  0  0  0  0
 22 23  4  0  0  0  0
 12 23  4  0  0  0  0
  8 24  4  0  0  0  0
 24 25  1  0  0  0  0
 24 26  4  0  0  0  0
 26 27  1  0  0  0  0
 27 28  2  0  0  0  0
 27 29  1  0  0  0  0
 26 30  4  0  0  0  0
  6 30  4  0  0  0  0
 30 31  4  0  0  0  0
  3 31  4  0  0  0  0
M  END
> <IC50(uM)>
1.09

> <Outcome>
0.0

> <BindingDB ID>
50107531

> <BindingDB MonomerID>
50020688

> <BindingDB Ligand Name>
CHEMBL3290847

> <Curation/DataSource>
ChEMBL

> <Article DOI>
10.1016/j.ejmech.2014.05.064

> <PMID>
24929289

> <Patent Number>
?

> <Authors>
Vyas, VK; Variya, B; Ghate, MD

> <Link to Ligand in BindingDB>
http://www.bindingdb.org/bind/chemsearch/marvin/MolStructure.jsp?monomerid=50020688

> <Link to Ligand-Target Pair in BindingDB>
http://www.bindingdb.org/jsp/dbsearch/PrimarySearch_ki.jsp?energyterm=kJ/mole&tag=r21&monomerid=50020688&enzyme=Dihydroorotate+dehydrogenase&column=ki&startPg=0&Increment=50&submit=Search

> <PubChem CID>
90644863

> <PubChem SID>
242042286

$$$$

  Mrv2115 07222212352D          

 30 33  0  0  0  0            999 V2000
    4.0668    2.3479    0.0000 C   0  0  0  0  0  0  0  0  0  0  0  0
    3.3523    1.9354    0.0000 C   0  0  0  0  0  0  0  0  0  0  0  0
    3.3523    1.1104    0.0000 C   0  0  0  0  0  0  0  0  0  0  0  0
    2.6378    0.6979    0.0000 C   0  0  0  0  0  0  0  0  0  0  0  0
    1.9233    1.1104    0.0000 N   0  0  0  0  0  0  0  0  0  0  0  0
    1.1387    0.8555    0.0000 N   0  0  0  0  0  0  0  0  0  0  0  0
    0.6538    1.5229    0.0000 C   0  0  0  0  0  0  0  0  0  0  0  0
   -0.1712    1.5229    0.0000 O   0  0  0  0  0  0  0  0  0  0  0  0
    1.1387    2.1904    0.0000 C   0  0  0  0  0  0  0  0  0  0  0  0
    0.8838    2.9750    0.0000 C   0  0  0  0  0  0  0  0  0  0  0  0
    1.4358    3.5881    0.0000 O   0  0  0  0  0  0  0  0  0  0  0  0
    0.0768    3.1465    0.0000 N   0  0  0  0  0  0  0  0  0  0  0  0
   -0.1781    3.9312    0.0000 C   0  0  0  0  0  0  0  0  0  0  0  0
   -0.9851    4.1027    0.0000 C   0  0  0  0  0  0  0  0  0  0  0  0
   -1.5371    3.4896    0.0000 F   0  0  0  0  0  0  0  0  0  0  0  0
   -1.2400    4.8873    0.0000 C   0  0  0  0  0  0  0  0  0  0  0  0
   -2.0470    5.0588    0.0000 F   0  0  0  0  0  0  0  0  0  0  0  0
   -0.6880    5.5004    0.0000 C   0  0  0  0  0  0  0  0  0  0  0  0
   -0.9429    6.2850    0.0000 C   0  0  0  0  0  0  0  0  0  0  0  0
   -1.7499    6.4565    0.0000 C   0  0  0  0  0  0  0  0  0  0  0  0
   -2.0049    7.2412    0.0000 C   0  0  0  0  0  0  0  0  0  0  0  0
   -1.4528    7.8543    0.0000 C   0  0  0  0  0  0  0  0  0  0  0  0
   -0.6459    7.6827    0.0000 C   0  0  0  0  0  0  0  0  0  0  0  0
   -0.3909    6.8981    0.0000 C   0  0  0  0  0  0  0  0  0  0  0  0
    0.1190    5.3289    0.0000 C   0  0  0  0  0  0  0  0  0  0  0  0
    0.6710    5.9420    0.0000 F   0  0  0  0  0  0  0  0  0  0  0  0
    0.3739    4.5442    0.0000 C   0  0  0  0  0  0  0  0  0  0  0  0
    1.1809    4.3727    0.0000 F   0  0  0  0  0  0  0  0  0  0  0  0
    1.9233    1.9354    0.0000 C   0  0  0  0  0  0  0  0  0  0  0  0
    2.6378    2.3479    0.0000 C   0  0  0  0  0  0  0  0  0  0  0  0
  1  2  1  0  0  0  0
  2  3  4  0  0  0  0
  3  4  4  0  0  0  0
  4  5  4  0  0  0  0
  5  6  4  0  0  0  0
  6  7  4  0  0  0  0
  7  8  1  0  0  0  0
  7  9  4  0  0  0  0
  9 10  1  0  0  0  0
 10 11  2  0  0  0  0
 10 12  1  0  0  0  0
 12 13  1  0  0  0  0
 13 14  4  0  0  0  0
 14 15  1  0  0  0  0
 14 16  4  0  0  0  0
 16 17  1  0  0  0  0
 16 18  4  0  0  0  0
 18 19  1  0  0  0  0
 19 20  4  0  0  0  0
 20 21  4  0  0  0  0
 21 22  4  0  0  0  0
 22 23  4  0  0  0  0
 23 24  4  0  0  0  0
 19 24  4  0  0  0  0
 18 25  4  0  0  0  0
 25 26  1  0  0  0  0
 25 27  4  0  0  0  0
 13 27  4  0  0  0  0
 27 28  1  0  0  0  0
  9 29  4  0  0  0  0
  5 29  4  0  0  0  0
 29 30  4  0  0  0  0
  2 30  4  0  0  0  0
M  END
> <IC50(uM)>
0.035

> <Outcome>
1.0

> <BindingDB ID>
50990485

> <BindingDB MonomerID>
50281171

> <BindingDB Ligand Name>
CHEMBL4177202

> <Curation/DataSource>
ChEMBL

> <Article DOI>
10.1021/acs.jmedchem.8b00373

> <PMID>
29939742

> <Patent Number>
?

> <Authors>
Sainas, S; Pippione, AC; Lupino, E; Giorgis, M; Circosta, P; Gaidano, V; Goyal, P; Bonanni, D; Rolando, B; Cignetti, A; Ducime, A; Andersson, M; J??rv??, M; Friemann, R; Piccinini, M; Ramondetti, C; Buccinn??, B; Al-Karadaghi, S; Boschi, D; Saglio, G; Lolli, ML

> <Link to Ligand in BindingDB>
http://www.bindingdb.org/bind/chemsearch/marvin/MolStructure.jsp?monomerid=50281171

> <Link to Ligand-Target Pair in BindingDB>
http://www.bindingdb.org/jsp/dbsearch/PrimarySearch_ki.jsp?energyterm=kJ/mole&tag=r21&monomerid=50281171&enzyme=Dihydroorotate+dehydrogenase&column=ki&startPg=0&Increment=50&submit=Search

> <PubChem CID>
145971993

> <PubChem SID>
104122875

$$$$

  Mrv2115 07222212352D          

 20 23  0  0  0  0            999 V2000
    1.9457   -4.4410    0.0000 O   0  0  0  0  0  0  0  0  0  0  0  0
    1.1387   -4.2695    0.0000 C   0  0  0  0  0  0  0  0  0  0  0  0
    0.5867   -4.8826    0.0000 N   0  0  0  0  0  0  0  0  0  0  0  0
    0.8416   -5.6672    0.0000 C   0  0  0  0  0  0  0  0  0  0  0  0
    1.4547   -6.2193    0.0000 C   0  0  0  0  0  0  0  0  0  0  0  0
    0.6701   -6.4742    0.0000 C   0  0  0  0  0  0  0  0  0  0  0  0
    0.8838   -3.4849    0.0000 C   0  0  0  0  0  0  0  0  0  0  0  0
    0.0992   -3.2299    0.0000 C   0  0  0  0  0  0  0  0  0  0  0  0
    0.0992   -2.4049    0.0000 C   0  0  0  0  0  0  0  0  0  0  0  0
    0.8838   -2.1500    0.0000 C   0  0  0  0  0  0  0  0  0  0  0  0
    1.1387   -1.3654    0.0000 N   0  0  0  0  0  0  0  0  0  0  0  0
    0.6538   -0.6979    0.0000 C   0  0  0  0  0  0  0  0  0  0  0  0
    1.1387   -0.0305    0.0000 N   0  0  0  0  0  0  0  0  0  0  0  0
    1.9233   -0.2854    0.0000 C   0  0  0  0  0  0  0  0  0  0  0  0
    2.6378    0.1271    0.0000 C   0  0  0  0  0  0  0  0  0  0  0  0
    3.3523   -0.2854    0.0000 C   0  0  0  0  0  0  0  0  0  0  0  0
    3.3523   -1.1104    0.0000 C   0  0  0  0  0  0  0  0  0  0  0  0
    2.6378   -1.5229    0.0000 C   0  0  0  0  0  0  0  0  0  0  0  0
    1.9233   -1.1104    0.0000 C   0  0  0  0  0  0  0  0  0  0  0  0
    1.3687   -2.8174    0.0000 S   0  0  0  0  0  0  0  0  0  0  0  0
  1  2  2  0  0  0  0
  2  3  1  0  0  0  0
  3  4  1  0  0  0  0
  4  5  1  0  0  0  0
  5  6  1  0  0  0  0
  4  6  1  0  0  0  0
  2  7  1  0  0  0  0
  7  8  4  0  0  0  0
  8  9  4  0  0  0  0
  9 10  4  0  0  0  0
 10 11  1  0  0  0  0
 11 12  4  0  0  0  0
 12 13  4  0  0  0  0
 13 14  4  0  0  0  0
 14 15  4  0  0  0  0
 15 16  4  0  0  0  0
 16 17  4  0  0  0  0
 17 18  4  0  0  0  0
 18 19  4  0  0  0  0
 14 19  4  0  0  0  0
 11 19  4  0  0  0  0
 10 20  4  0  0  0  0
  7 20  4  0  0  0  0
M  END
> <IC50(uM)>
30.0

> <Outcome>
0.0

> <BindingDB ID>
50924660

> <BindingDB MonomerID>
50379142

> <BindingDB Ligand Name>
CHEMBL2012824::US8703811, 23

> <Curation/DataSource>
ChEMBL

> <Article DOI>
10.1021/ml200143c

> <PMID>
24900364

> <Patent Number>
?

> <Authors>
Skerlj, RT; Bastos, CM; Booker, ML; Kramer, ML; Barker, RH; Celatka, CA; Munoz, B; Sidhu, AB; Cortese, JF; Wittlin, S; Papastogiannidis, P; Angulo-Barturen, I; Jimenez-Diaz, MB; Sybertz, E

> <Link to Ligand in BindingDB>
http://www.bindingdb.org/bind/chemsearch/marvin/MolStructure.jsp?monomerid=50379142

> <Link to Ligand-Target Pair in BindingDB>
http://www.bindingdb.org/jsp/dbsearch/PrimarySearch_ki.jsp?energyterm=kJ/mole&tag=r21&monomerid=50379142&enzyme=Dihydroorotate+dehydrogenase&column=ki&startPg=0&Increment=50&submit=Search

> <PubChem CID>
58284899

> <PubChem SID>
160858225

$$$$

  Mrv2115 07222212352D          

 28 30  0  0  0  0            999 V2000
   -0.7145   -3.7125    0.0000 C   0  0  0  0  0  0  0  0  0  0  0  0
   -0.7145   -2.8875    0.0000 C   0  0  0  0  0  0  0  0  0  0  0  0
    0.0000   -2.4750    0.0000 N   0  0  0  0  0  0  0  0  0  0  0  0
    0.0000   -1.6500    0.0000 C   0  0  0  0  0  0  0  0  0  0  0  0
   -0.7145   -1.2375    0.0000 O   0  0  0  0  0  0  0  0  0  0  0  0
    0.7145   -1.2375    0.0000 C   0  0  0  0  0  0  0  0  0  0  0  0
    0.7145   -0.4125    0.0000 C   0  0  0  0  0  0  0  0  0  0  0  0
    1.4289    0.0000    0.0000 C   0  0  0  0  0  0  0  0  0  0  0  0
    2.1434   -0.4125    0.0000 C   0  0  0  0  0  0  0  0  0  0  0  0
    2.8579    0.0000    0.0000 C   0  0  0  0  0  0  0  0  0  0  0  0
    3.5724   -0.4125    0.0000 C   0  0  0  0  0  0  0  0  0  0  0  0
    4.2868   -0.0000    0.0000 C   0  0  0  0  0  0  0  0  0  0  0  0
    4.2868    0.8250    0.0000 C   0  0  0  0  0  0  0  0  0  0  0  0
    5.0013    1.2375    0.0000 C   0  0  0  0  0  0  0  0  0  0  0  0
    5.0013    2.0625    0.0000 C   0  0  0  0  0  0  0  0  0  0  0  0
    4.2868    2.4750    0.0000 C   0  0  0  0  0  0  0  0  0  0  0  0
    4.2868    3.3000    0.0000 O   0  0  0  0  0  0  0  0  0  0  0  0
    3.5724    2.0625    0.0000 O   0  0  0  0  0  0  0  0  0  0  0  0
    5.7158    2.4750    0.0000 N   0  0  0  0  0  0  0  0  0  0  0  0
    6.4302    2.0625    0.0000 C   0  0  0  0  0  0  0  0  0  0  0  0
    7.1447    2.4750    0.0000 O   0  0  0  0  0  0  0  0  0  0  0  0
    6.4302    1.2375    0.0000 N   0  0  0  0  0  0  0  0  0  0  0  0
    5.7158    0.8250    0.0000 C   0  0  0  0  0  0  0  0  0  0  0  0
    5.7158   -0.0000    0.0000 O   0  0  0  0  0  0  0  0  0  0  0  0
    3.5724   -1.2375    0.0000 C   0  0  0  0  0  0  0  0  0  0  0  0
    2.8579   -1.6500    0.0000 C   0  0  0  0  0  0  0  0  0  0  0  0
    2.1434   -1.2375    0.0000 C   0  0  0  0  0  0  0  0  0  0  0  0
    1.4289   -1.6500    0.0000 C   0  0  0  0  0  0  0  0  0  0  0  0
  1  2  1  0  0  0  0
  2  3  1  0  0  0  0
  3  4  1  0  0  0  0
  4  5  2  0  0  0  0
  4  6  1  0  0  0  0
  6  7  4  0  0  0  0
  7  8  4  0  0  0  0
  8  9  4  0  0  0  0
  9 10  4  0  0  0  0
 10 11  4  0  0  0  0
 11 12  1  0  0  0  0
 12 13  1  0  0  0  0
 13 14  1  0  0  0  0
 14 15  4  0  0  0  0
 15 16  1  0  0  0  0
 16 17  2  0  0  0  0
 16 18  1  0  0  0  0
 15 19  4  0  0  0  0
 19 20  4  0  0  0  0
 20 21  2  0  0  0  0
 20 22  4  0  0  0  0
 22 23  4  0  0  0  0
 14 23  4  0  0  0  0
 23 24  2  0  0  0  0
 11 25  4  0  0  0  0
 25 26  4  0  0  0  0
 26 27  4  0  0  0  0
  9 27  4  0  0  0  0
 27 28  4  0  0  0  0
  6 28  4  0  0  0  0
M  STY  2   1 DAT   2 DAT
M  SAL   1  1  19
M  SDT   1 MRV_IMPLICIT_H                                        
M  SDD   1     0.6482   -0.4125    DR    ALL  0       0  
M  SED   1 IMPL_H1
M  SAL   2  1  22
M  SDT   2 MRV_IMPLICIT_H                                        
M  SDD   2     0.5304   -0.4125    DR    ALL  0       0  
M  SED   2 IMPL_H1
M  END
> <IC50(uM)>
0.472

> <Outcome>
1.0

> <BindingDB ID>
50555393

> <BindingDB MonomerID>
50211945

> <BindingDB Ligand Name>
CHEMBL3908653

> <Curation/DataSource>
ChEMBL

> <Article DOI>
10.1016/j.bmc.2017.01.009

> <PMID>
28118956

> <Patent Number>
?

> <Authors>
Inaoka, DK; Iida, M; Hashimoto, S; Tabuchi, T; Kuranaga, T; Balogun, EO; Honma, T; Tanaka, A; Harada, S; Nara, T; Kita, K; Inoue, M

> <Link to Ligand in BindingDB>
http://www.bindingdb.org/bind/chemsearch/marvin/MolStructure.jsp?monomerid=50211945

> <Link to Ligand-Target Pair in BindingDB>
http://www.bindingdb.org/jsp/dbsearch/PrimarySearch_ki.jsp?energyterm=kJ/mole&tag=r21&monomerid=50211945&enzyme=Dihydroorotate+dehydrogenase&column=ki&startPg=0&Increment=50&submit=Search

> <PubChem CID>
134132121

> <PubChem SID>
104088023

$$$$

  Mrv2115 07222212352D          

 23 24  0  0  0  0            999 V2000
    3.4656    1.1759    0.0000 C   0  0  0  0  0  0  0  0  0  0  0  0
    2.7512    0.7634    0.0000 C   0  0  0  0  0  0  0  0  0  0  0  0
    2.7512   -0.0616    0.0000 O   0  0  0  0  0  0  0  0  0  0  0  0
    2.0367   -0.4741    0.0000 C   0  0  0  0  0  0  0  0  0  0  0  0
    1.3222   -0.0616    0.0000 O   0  0  0  0  0  0  0  0  0  0  0  0
    2.0367   -1.2991    0.0000 C   0  0  0  0  0  0  0  0  0  0  0  0
    1.3693   -1.7840    0.0000 N   0  0  0  0  0  0  0  0  0  0  0  0
    1.6242   -2.5687    0.0000 C   0  0  0  0  0  0  0  0  0  0  0  0
    2.4492   -2.5687    0.0000 C   0  0  0  0  0  0  0  0  0  0  0  0
    2.9341   -3.2361    0.0000 C   0  0  0  0  0  0  0  0  0  0  0  0
    2.5986   -3.9898    0.0000 C   0  0  0  0  0  0  0  0  0  0  0  0
    3.0835   -4.6572    0.0000 C   0  0  0  0  0  0  0  0  0  0  0  0
    2.7479   -5.4109    0.0000 C   0  0  0  0  0  0  0  0  0  0  0  0
    1.9275   -5.4971    0.0000 C   0  0  0  0  0  0  0  0  0  0  0  0
    1.5919   -6.2508    0.0000 C   0  0  0  0  0  0  0  0  0  0  0  0
    1.2563   -7.0045    0.0000 F   0  0  0  0  0  0  0  0  0  0  0  0
    0.8382   -5.9152    0.0000 F   0  0  0  0  0  0  0  0  0  0  0  0
    2.3456   -6.5863    0.0000 F   0  0  0  0  0  0  0  0  0  0  0  0
    1.4425   -4.8297    0.0000 C   0  0  0  0  0  0  0  0  0  0  0  0
    1.7781   -4.0760    0.0000 C   0  0  0  0  0  0  0  0  0  0  0  0
    1.2932   -3.4086    0.0000 F   0  0  0  0  0  0  0  0  0  0  0  0
    2.7041   -1.7840    0.0000 C   0  0  0  0  0  0  0  0  0  0  0  0
    3.4888   -1.5291    0.0000 C   0  0  0  0  0  0  0  0  0  0  0  0
  1  2  1  0  0  0  0
  2  3  1  0  0  0  0
  3  4  1  0  0  0  0
  4  5  2  0  0  0  0
  4  6  1  0  0  0  0
  6  7  4  0  0  0  0
  7  8  4  0  0  0  0
  8  9  4  0  0  0  0
  9 10  1  0  0  0  0
 10 11  1  0  0  0  0
 11 12  4  0  0  0  0
 12 13  4  0  0  0  0
 13 14  4  0  0  0  0
 14 15  1  0  0  0  0
 15 16  1  0  0  0  0
 15 17  1  0  0  0  0
 15 18  1  0  0  0  0
 14 19  4  0  0  0  0
 19 20  4  0  0  0  0
 11 20  4  0  0  0  0
 20 21  1  0  0  0  0
  9 22  4  0  0  0  0
  6 22  4  0  0  0  0
 22 23  1  0  0  0  0
M  STY  1   1 DAT
M  SAL   1  1   7
M  SDT   1 MRV_IMPLICIT_H                                        
M  SDD   1     0.5304   -0.4125    DR    ALL  0       0  
M  SED   1 IMPL_H1
M  END
> <IC50(uM)>
100.0

> <Outcome>
0.0

> <BindingDB ID>
51330110

> <BindingDB MonomerID>
50538358

> <BindingDB Ligand Name>
CHEMBL4639907

> <Curation/DataSource>
ChEMBL

> <Article DOI>
10.1021/acs.jmedchem.0c00311

> <PMID>
32248693

> <Patent Number>
?

> <Authors>
Kokkonda, S; Deng, X; White, KL; El Mazouni, F; White, J; Shackleford, DM; Katneni, K; Chiu, FCK; Barker, H; McLaren, J; Crighton, E; Chen, G; Angulo-Barturen, I; Jimenez-Diaz, MB; Ferrer, S; Huertas-Valentin, L; Martinez-Martinez, MS; Lafuente-Monasterio, MJ; Chittimalla, R; Shahi, SP; Wittlin, S; Waterson, D; Burrows, JN; Matthews, D; Tomchick, D; Rathod, PK; Palmer, MJ; Charman, SA; Phillips, MA

> <Link to Ligand in BindingDB>
http://www.bindingdb.org/bind/chemsearch/marvin/MolStructure.jsp?monomerid=50538358

> <Link to Ligand-Target Pair in BindingDB>
http://www.bindingdb.org/jsp/dbsearch/PrimarySearch_ki.jsp?energyterm=kJ/mole&tag=r21&monomerid=50538358&enzyme=Dihydroorotate+dehydrogenase&column=ki&startPg=0&Increment=50&submit=Search

> <PubChem CID>
156014836

> <PubChem SID>
442139921

$$$$

  Mrv2115 07222212352D          

 32 34  0  0  0  0            999 V2000
    0.7145   -3.7125    0.0000 O   0  0  0  0  0  0  0  0  0  0  0  0
    1.4289   -4.1250    0.0000 C   0  0  0  0  0  0  0  0  0  0  0  0
    2.1434   -3.7125    0.0000 O   0  0  0  0  0  0  0  0  0  0  0  0
    1.4289   -4.9500    0.0000 C   0  0  0  0  0  0  0  0  0  0  0  0
    2.0964   -5.4349    0.0000 C   0  0  0  0  0  0  0  0  0  0  0  0
    2.8810   -5.1800    0.0000 C   0  0  0  0  0  0  0  0  0  0  0  0
    3.4941   -5.7320    0.0000 O   0  0  0  0  0  0  0  0  0  0  0  0
    3.0525   -4.3730    0.0000 N   0  0  0  0  0  0  0  0  0  0  0  0
    3.8372   -4.1181    0.0000 C   0  0  0  0  0  0  0  0  0  0  0  0
    4.0087   -3.3111    0.0000 C   0  0  0  0  0  0  0  0  0  0  0  0
    3.3956   -2.7591    0.0000 F   0  0  0  0  0  0  0  0  0  0  0  0
    4.7933   -3.0562    0.0000 C   0  0  0  0  0  0  0  0  0  0  0  0
    4.9648   -2.2492    0.0000 F   0  0  0  0  0  0  0  0  0  0  0  0
    5.4064   -3.6082    0.0000 C   0  0  0  0  0  0  0  0  0  0  0  0
    6.1910   -3.3533    0.0000 C   0  0  0  0  0  0  0  0  0  0  0  0
    6.3625   -2.5463    0.0000 C   0  0  0  0  0  0  0  0  0  0  0  0
    7.1472   -2.2913    0.0000 C   0  0  0  0  0  0  0  0  0  0  0  0
    7.7603   -2.8434    0.0000 C   0  0  0  0  0  0  0  0  0  0  0  0
    7.5887   -3.6503    0.0000 C   0  0  0  0  0  0  0  0  0  0  0  0
    8.2018   -4.2024    0.0000 O   0  0  0  0  0  0  0  0  0  0  0  0
    8.9864   -3.9474    0.0000 C   0  0  0  0  0  0  0  0  0  0  0  0
    9.7711   -3.6925    0.0000 F   0  0  0  0  0  0  0  0  0  0  0  0
    9.2414   -4.7321    0.0000 F   0  0  0  0  0  0  0  0  0  0  0  0
    8.7315   -3.1628    0.0000 F   0  0  0  0  0  0  0  0  0  0  0  0
    6.8041   -3.9053    0.0000 C   0  0  0  0  0  0  0  0  0  0  0  0
    5.2349   -4.4152    0.0000 C   0  0  0  0  0  0  0  0  0  0  0  0
    5.8480   -4.9672    0.0000 F   0  0  0  0  0  0  0  0  0  0  0  0
    4.4502   -4.6701    0.0000 C   0  0  0  0  0  0  0  0  0  0  0  0
    4.2787   -5.4771    0.0000 F   0  0  0  0  0  0  0  0  0  0  0  0
    1.8414   -6.2195    0.0000 C   0  0  0  0  0  0  0  0  0  0  0  0
    1.0164   -6.2195    0.0000 S   0  0  0  0  0  0  0  0  0  0  0  0
    0.7615   -5.4349    0.0000 C   0  0  0  0  0  0  0  0  0  0  0  0
  1  2  2  0  0  0  0
  2  3  1  0  0  0  0
  2  4  1  0  0  0  0
  4  5  2  0  0  0  0
  5  6  1  0  0  0  0
  6  7  2  0  0  0  0
  6  8  1  0  0  0  0
  8  9  1  0  0  0  0
  9 10  4  0  0  0  0
 10 11  1  0  0  0  0
 10 12  4  0  0  0  0
 12 13  1  0  0  0  0
 12 14  4  0  0  0  0
 14 15  1  0  0  0  0
 15 16  4  0  0  0  0
 16 17  4  0  0  0  0
 17 18  4  0  0  0  0
 18 19  4  0  0  0  0
 19 20  1  0  0  0  0
 20 21  1  0  0  0  0
 21 22  1  0  0  0  0
 21 23  1  0  0  0  0
 21 24  1  0  0  0  0
 19 25  4  0  0  0  0
 15 25  4  0  0  0  0
 14 26  4  0  0  0  0
 26 27  1  0  0  0  0
 26 28  4  0  0  0  0
  9 28  4  0  0  0  0
 28 29  1  0  0  0  0
  5 30  1  0  0  0  0
 30 31  1  0  0  0  0
 31 32  1  0  0  0  0
  4 32  1  0  0  0  0
M  END
> <IC50(uM)>
0.004

> <Outcome>
1.0

> <BindingDB ID>
50319893

> <BindingDB MonomerID>
50173155

> <BindingDB Ligand Name>
4-(2,3,5,6-Tetrafluoro-3'-trifluoromethoxy-biphenyl-4-ylcarbamoyl)-2,5-dihydro-thiophene-3-carboxylic acid::CHEMBL194955

> <Curation/DataSource>
ChEMBL

> <Article DOI>
10.1016/j.bmcl.2005.07.053

> <PMID>
16143532

> <Patent Number>
?

> <Authors>
Leban, J; Kralik, M; Mies, J; Gassen, M; Tentschert, K; Baumgartner, R

> <Link to Ligand in BindingDB>
http://www.bindingdb.org/bind/chemsearch/marvin/MolStructure.jsp?monomerid=50173155

> <Link to Ligand-Target Pair in BindingDB>
http://www.bindingdb.org/jsp/dbsearch/PrimarySearch_ki.jsp?energyterm=kJ/mole&tag=r21&monomerid=50173155&enzyme=Dihydroorotate+dehydrogenase&column=ki&startPg=0&Increment=50&submit=Search

> <PubChem CID>
44403251

> <PubChem SID>
104059126

$$$$

  Mrv2115 07222212352D          

 31 34  0  0  0  0            999 V2000
   -2.1434   -7.0125    0.0000 C   0  0  0  0  0  0  0  0  0  0  0  0
   -2.1434   -6.1875    0.0000 C   0  0  0  0  0  0  0  0  0  0  0  0
   -1.3184   -6.1875    0.0000 C   0  0  0  0  0  0  0  0  0  0  0  0
   -2.9684   -6.1875    0.0000 C   0  0  0  0  0  0  0  0  0  0  0  0
   -2.1434   -5.3625    0.0000 C   0  0  0  0  0  0  0  0  0  0  0  0
   -2.8579   -4.9500    0.0000 C   0  0  0  0  0  0  0  0  0  0  0  0
   -2.8579   -4.1250    0.0000 C   0  0  0  0  0  0  0  0  0  0  0  0
   -2.1434   -3.7125    0.0000 C   0  0  0  0  0  0  0  0  0  0  0  0
   -2.1434   -2.8875    0.0000 O   0  0  0  0  0  0  0  0  0  0  0  0
   -1.4289   -2.4750    0.0000 C   0  0  0  0  0  0  0  0  0  0  0  0
   -1.4289   -1.6500    0.0000 C   0  0  0  0  0  0  0  0  0  0  0  0
   -0.7145   -1.2375    0.0000 C   0  0  0  0  0  0  0  0  0  0  0  0
    0.0000   -1.6500    0.0000 C   0  0  0  0  0  0  0  0  0  0  0  0
    0.7145   -1.2375    0.0000 C   0  0  0  0  0  0  0  0  0  0  0  0
    0.7145   -0.4125    0.0000 C   0  0  0  0  0  0  0  0  0  0  0  0
    1.4289    0.0000    0.0000 C   0  0  0  0  0  0  0  0  0  0  0  0
    1.4289    0.8250    0.0000 C   0  0  0  0  0  0  0  0  0  0  0  0
    2.1434    1.2375    0.0000 O   0  0  0  0  0  0  0  0  0  0  0  0
    0.7145    1.2375    0.0000 O   0  0  0  0  0  0  0  0  0  0  0  0
    2.1434   -0.4125    0.0000 C   0  0  0  0  0  0  0  0  0  0  0  0
    2.8579    0.0000    0.0000 C   0  0  0  0  0  0  0  0  0  0  0  0
    3.5724   -0.4125    0.0000 C   0  0  0  0  0  0  0  0  0  0  0  0
    4.2868   -0.0000    0.0000 F   0  0  0  0  0  0  0  0  0  0  0  0
    3.5724   -1.2375    0.0000 C   0  0  0  0  0  0  0  0  0  0  0  0
    2.8579   -1.6500    0.0000 C   0  0  0  0  0  0  0  0  0  0  0  0
    2.1434   -1.2375    0.0000 C   0  0  0  0  0  0  0  0  0  0  0  0
    1.4289   -1.6500    0.0000 N   0  0  0  0  0  0  0  0  0  0  0  0
    0.0000   -2.4750    0.0000 C   0  0  0  0  0  0  0  0  0  0  0  0
   -0.7145   -2.8875    0.0000 C   0  0  0  0  0  0  0  0  0  0  0  0
   -1.4289   -4.1250    0.0000 C   0  0  0  0  0  0  0  0  0  0  0  0
   -1.4289   -4.9500    0.0000 C   0  0  0  0  0  0  0  0  0  0  0  0
  1  2  1  0  0  0  0
  2  3  1  0  0  0  0
  2  4  1  0  0  0  0
  2  5  1  0  0  0  0
  5  6  4  0  0  0  0
  6  7  4  0  0  0  0
  7  8  4  0  0  0  0
  8  9  1  0  0  0  0
  9 10  1  0  0  0  0
 10 11  4  0  0  0  0
 11 12  4  0  0  0  0
 12 13  4  0  0  0  0
 13 14  1  0  0  0  0
 14 15  4  0  0  0  0
 15 16  4  0  0  0  0
 16 17  1  0  0  0  0
 17 18  2  0  0  0  0
 17 19  1  0  0  0  0
 16 20  4  0  0  0  0
 20 21  4  0  0  0  0
 21 22  4  0  0  0  0
 22 23  1  0  0  0  0
 22 24  4  0  0  0  0
 24 25  4  0  0  0  0
 25 26  4  0  0  0  0
 20 26  4  0  0  0  0
 26 27  4  0  0  0  0
 14 27  4  0  0  0  0
 13 28  4  0  0  0  0
 28 29  4  0  0  0  0
 10 29  4  0  0  0  0
  8 30  4  0  0  0  0
 30 31  4  0  0  0  0
  5 31  4  0  0  0  0
M  END
> <IC50(uM)>
0.019

> <Outcome>
1.0

> <BindingDB ID>
51064006

> <BindingDB MonomerID>
50434230

> <BindingDB Ligand Name>
CHEMBL2385510

> <Curation/DataSource>
ChEMBL

> <Article DOI>
10.1021/ml300464h

> <PMID>
23930152

> <Patent Number>
?

> <Authors>
Das, P; Deng, X; Zhang, L; Roth, MG; Fontoura, BM; Phillips, MA; De Brabander, JK

> <Link to Ligand in BindingDB>
http://www.bindingdb.org/bind/chemsearch/marvin/MolStructure.jsp?monomerid=50434230

> <Link to Ligand-Target Pair in BindingDB>
http://www.bindingdb.org/jsp/dbsearch/PrimarySearch_ki.jsp?energyterm=kJ/mole&tag=r21&monomerid=50434230&enzyme=Dihydroorotate+dehydrogenase&column=ki&startPg=0&Increment=50&submit=Search

> <PubChem CID>
71816637

> <PubChem SID>
175446547

$$$$

  Mrv2115 07222212352D          

 25 27  0  0  0  0            999 V2000
   -0.1240   -6.1895    0.0000 C   0  0  0  0  0  0  0  0  0  0  0  0
    0.2885   -6.9039    0.0000 C   0  0  0  0  0  0  0  0  0  0  0  0
    1.1135   -6.9039    0.0000 O   0  0  0  0  0  0  0  0  0  0  0  0
    1.5260   -7.6184    0.0000 C   0  0  0  0  0  0  0  0  0  0  0  0
    1.1135   -8.3329    0.0000 O   0  0  0  0  0  0  0  0  0  0  0  0
    2.3510   -7.6184    0.0000 C   0  0  0  0  0  0  0  0  0  0  0  0
    2.7635   -6.9039    0.0000 C   0  0  0  0  0  0  0  0  0  0  0  0
    3.1760   -6.1895    0.0000 N   0  0  0  0  0  0  0  0  0  0  0  0
    2.7635   -8.3329    0.0000 C   0  0  0  0  0  0  0  0  0  0  0  0
    3.5885   -8.3329    0.0000 N   0  0  0  0  0  0  0  0  0  0  0  0
    4.0010   -9.0473    0.0000 C   0  0  0  0  0  0  0  0  0  0  0  0
    3.5885   -9.7618    0.0000 C   0  0  0  0  0  0  0  0  0  0  0  0
    4.0010  -10.4763    0.0000 C   0  0  0  0  0  0  0  0  0  0  0  0
    4.8260  -10.4763    0.0000 C   0  0  0  0  0  0  0  0  0  0  0  0
    5.2385   -9.7618    0.0000 C   0  0  0  0  0  0  0  0  0  0  0  0
    4.8260   -9.0473    0.0000 C   0  0  0  0  0  0  0  0  0  0  0  0
    6.0455   -9.9333    0.0000 C   0  0  0  0  0  0  0  0  0  0  0  0
    6.7129   -9.4484    0.0000 C   0  0  0  0  0  0  0  0  0  0  0  0
    7.4666   -9.7840    0.0000 C   0  0  0  0  0  0  0  0  0  0  0  0
    7.5529  -10.6045    0.0000 C   0  0  0  0  0  0  0  0  0  0  0  0
    6.8854  -11.0894    0.0000 C   0  0  0  0  0  0  0  0  0  0  0  0
    6.1317  -10.7538    0.0000 C   0  0  0  0  0  0  0  0  0  0  0  0
    5.3781  -11.0894    0.0000 N   0  0  0  0  0  0  0  0  0  0  0  0
    5.2065  -11.8963    0.0000 C   0  0  0  0  0  0  0  0  0  0  0  0
    4.4219  -12.1513    0.0000 C   0  0  0  0  0  0  0  0  0  0  0  0
  1  2  1  0  0  0  0
  2  3  1  0  0  0  0
  3  4  1  0  0  0  0
  4  5  2  0  0  0  0
  4  6  1  0  0  0  0
  6  7  1  0  0  0  0
  7  8  3  0  0  0  0
  9  6  1  4  0  0  0
  9 10  2  0  0  0  0
 10 11  1  0  0  0  0
 11 12  4  0  0  0  0
 12 13  4  0  0  0  0
 13 14  4  0  0  0  0
 14 15  4  0  0  0  0
 15 16  4  0  0  0  0
 11 16  4  0  0  0  0
 15 17  4  0  0  0  0
 17 18  4  0  0  0  0
 18 19  4  0  0  0  0
 19 20  4  0  0  0  0
 20 21  4  0  0  0  0
 21 22  4  0  0  0  0
 17 22  4  0  0  0  0
 22 23  4  0  0  0  0
 14 23  4  0  0  0  0
 23 24  1  0  0  0  0
 24 25  1  0  0  0  0
M  END
> <IC50(uM)>
491.4

> <Outcome>
0.0

> <BindingDB ID>
26829

> <BindingDB MonomerID>
14701

> <BindingDB Ligand Name>
2-Cyano-3-(9-ethyl-9H-carbazol-3-ylamino)acrylic Acid Ethyl Ester::ethyl (2Z)-2-cyano-3-[(9-ethyl-9H-carbazol-3-yl)amino]prop-2-enoate::tricyclic compound 6

> <Curation/DataSource>
Curated from the literature by BindingDB

> <Article DOI>
10.1021/jm060687j

> <PMID>
17228860

> <Patent Number>
?

> <Authors>
Heikkila, T; Ramsey, C; Davies, M; Galtier, C; Stead, AM; Johnson, AP; Fishwick, CW; Boa, AN; McConkey, GA

> <Link to Ligand in BindingDB>
http://www.bindingdb.org/bind/chemsearch/marvin/MolStructure.jsp?monomerid=14701

> <Link to Ligand-Target Pair in BindingDB>
http://www.bindingdb.org/jsp/dbsearch/PrimarySearch_ki.jsp?energyterm=kJ/mole&tag=r21&monomerid=14701&enzyme=Dihydroorotate+dehydrogenase&column=ki&startPg=0&Increment=50&submit=Search

> <PubChem CID>
91895903

> <PubChem SID>
46515031

$$$$

  Mrv2115 07222212352D          

 15 16  0  0  0  0            999 V2000
    4.7812    3.5854    0.0000 C   0  0  0  0  0  0  0  0  0  0  0  0
    4.0668    3.1729    0.0000 C   0  0  0  0  0  0  0  0  0  0  0  0
    4.0668    2.3479    0.0000 C   0  0  0  0  0  0  0  0  0  0  0  0
    4.7812    1.9354    0.0000 C   0  0  0  0  0  0  0  0  0  0  0  0
    3.3523    1.9354    0.0000 C   0  0  0  0  0  0  0  0  0  0  0  0
    3.3523    1.1104    0.0000 N   0  0  0  0  0  0  0  0  0  0  0  0
    2.6378    0.6979    0.0000 C   0  0  0  0  0  0  0  0  0  0  0  0
    2.6378   -0.1271    0.0000 O   0  0  0  0  0  0  0  0  0  0  0  0
    1.9233    1.1104    0.0000 C   0  0  0  0  0  0  0  0  0  0  0  0
    1.1387    0.8555    0.0000 C   0  0  0  0  0  0  0  0  0  0  0  0
    0.6538    1.5229    0.0000 C   0  0  0  0  0  0  0  0  0  0  0  0
    1.1387    2.1904    0.0000 C   0  0  0  0  0  0  0  0  0  0  0  0
    1.9233    1.9354    0.0000 N   0  0  0  0  0  0  0  0  0  0  0  0
    2.6378    2.3479    0.0000 C   0  0  0  0  0  0  0  0  0  0  0  0
    2.6378    3.1729    0.0000 O   0  0  0  0  0  0  0  0  0  0  0  0
  1  2  1  0  0  0  0
  2  3  1  0  0  0  0
  3  4  1  0  0  0  0
  3  5  1  0  0  0  0
  5  6  1  0  0  0  0
  6  7  1  0  0  0  0
  7  8  2  0  0  0  0
  7  9  1  0  0  0  0
  9 10  1  0  0  0  0
 10 11  1  0  0  0  0
 11 12  1  0  0  0  0
 12 13  1  0  0  0  0
  9 13  1  0  0  0  0
 13 14  1  0  0  0  0
  5 14  1  0  0  0  0
 14 15  2  0  0  0  0
M  END
> <IC50(uM)>
50.0

> <Outcome>
0.0

> <BindingDB ID>
306823

> <BindingDB MonomerID>
163708

> <BindingDB Ligand Name>
Cyclo L-Pro-L-Ile (Fr. 1-5)

> <Curation/DataSource>
Curated from the literature by BindingDB

> <Article DOI>
10.1111/cbdd.12530

> <PMID>
25626527

> <Patent Number>
?

> <Authors>
Jiang, L; Wen, H; Shao, Y; Yu, R; Liu, Z; Wang, S; Wang, Q; Zhao, X; Zhang, P; Tao, Y; Mei, L

> <Link to Ligand in BindingDB>
http://www.bindingdb.org/bind/chemsearch/marvin/MolStructure.jsp?monomerid=163708

> <Link to Ligand-Target Pair in BindingDB>
http://www.bindingdb.org/jsp/dbsearch/PrimarySearch_ki.jsp?energyterm=kJ/mole&tag=r21&monomerid=163708&enzyme=Dihydroorotate+dehydrogenase&column=ki&startPg=0&Increment=50&submit=Search

> <PubChem CID>
13654640

> <PubChem SID>
311419059

$$$$

  Mrv2115 07222212352D          

 35 39  0  0  0  0            999 V2000
   -0.1712   -0.6979    0.0000 C   0  0  0  0  0  0  0  0  0  0  0  0
    0.6538   -0.6979    0.0000 C   0  0  0  0  0  0  0  0  0  0  0  0
    1.1387   -0.0305    0.0000 N   0  0  0  0  0  0  0  0  0  0  0  0
    1.9233   -0.2854    0.0000 C   0  0  0  0  0  0  0  0  0  0  0  0
    2.6378    0.1271    0.0000 C   0  0  0  0  0  0  0  0  0  0  0  0
    2.6378    0.9521    0.0000 C   0  0  0  0  0  0  0  0  0  0  0  0
    3.3523    1.3646    0.0000 O   0  0  0  0  0  0  0  0  0  0  0  0
    1.9233    1.3646    0.0000 O   0  0  0  0  0  0  0  0  0  0  0  0
    3.3523   -0.2854    0.0000 C   0  0  0  0  0  0  0  0  0  0  0  0
    3.3523   -1.1104    0.0000 C   0  0  0  0  0  0  0  0  0  0  0  0
    4.0668   -1.5229    0.0000 C   0  0  0  0  0  0  0  0  0  0  0  0
    4.7812   -1.1104    0.0000 C   0  0  0  0  0  0  0  0  0  0  0  0
    4.7812   -0.2854    0.0000 F   0  0  0  0  0  0  0  0  0  0  0  0
    5.4957   -1.5229    0.0000 C   0  0  0  0  0  0  0  0  0  0  0  0
    6.2102   -1.1104    0.0000 F   0  0  0  0  0  0  0  0  0  0  0  0
    5.4957   -2.3479    0.0000 C   0  0  0  0  0  0  0  0  0  0  0  0
    6.2102   -2.7604    0.0000 C   0  0  0  0  0  0  0  0  0  0  0  0
    6.9246   -2.3479    0.0000 C   0  0  0  0  0  0  0  0  0  0  0  0
    7.6391   -2.7604    0.0000 C   0  0  0  0  0  0  0  0  0  0  0  0
    7.6391   -3.5854    0.0000 C   0  0  0  0  0  0  0  0  0  0  0  0
    8.3536   -3.9979    0.0000 C   0  0  0  0  0  0  0  0  0  0  0  0
    8.3536   -4.8229    0.0000 N   0  0  0  0  0  0  0  0  0  0  0  0
    9.0210   -5.3079    0.0000 C   0  0  0  0  0  0  0  0  0  0  0  0
    8.7661   -6.0925    0.0000 C   0  0  0  0  0  0  0  0  0  0  0  0
    7.9411   -6.0925    0.0000 C   0  0  0  0  0  0  0  0  0  0  0  0
    7.6861   -5.3079    0.0000 C   0  0  0  0  0  0  0  0  0  0  0  0
    6.9246   -3.9979    0.0000 C   0  0  0  0  0  0  0  0  0  0  0  0
    6.2102   -3.5854    0.0000 C   0  0  0  0  0  0  0  0  0  0  0  0
    4.7812   -2.7604    0.0000 C   0  0  0  0  0  0  0  0  0  0  0  0
    4.7812   -3.5854    0.0000 F   0  0  0  0  0  0  0  0  0  0  0  0
    4.0668   -2.3479    0.0000 C   0  0  0  0  0  0  0  0  0  0  0  0
    3.3523   -2.7604    0.0000 F   0  0  0  0  0  0  0  0  0  0  0  0
    2.6378   -1.5229    0.0000 C   0  0  0  0  0  0  0  0  0  0  0  0
    1.9233   -1.1104    0.0000 C   0  0  0  0  0  0  0  0  0  0  0  0
    1.1387   -1.3654    0.0000 N   0  0  0  0  0  0  0  0  0  0  0  0
  1  2  1  0  0  0  0
  2  3  4  0  0  0  0
  3  4  4  0  0  0  0
  4  5  4  0  0  0  0
  5  6  1  0  0  0  0
  6  7  2  0  0  0  0
  6  8  1  0  0  0  0
  5  9  4  0  0  0  0
  9 10  4  0  0  0  0
 10 11  1  0  0  0  0
 11 12  4  0  0  0  0
 12 13  1  0  0  0  0
 12 14  4  0  0  0  0
 14 15  1  0  0  0  0
 14 16  4  0  0  0  0
 16 17  1  0  0  0  0
 17 18  4  0  0  0  0
 18 19  4  0  0  0  0
 19 20  4  0  0  0  0
 20 21  1  0  0  0  0
 21 22  1  0  0  0  0
 22 23  1  0  0  0  0
 23 24  1  0  0  0  0
 24 25  1  0  0  0  0
 25 26  1  0  0  0  0
 22 26  1  0  0  0  0
 20 27  4  0  0  0  0
 27 28  4  0  0  0  0
 17 28  4  0  0  0  0
 16 29  4  0  0  0  0
 29 30  1  0  0  0  0
 29 31  4  0  0  0  0
 11 31  4  0  0  0  0
 31 32  1  0  0  0  0
 10 33  4  0  0  0  0
 33 34  4  0  0  0  0
  4 34  4  0  0  0  0
 34 35  4  0  0  0  0
  2 35  4  0  0  0  0
M  STY  1   1 DAT
M  SAL   1  1  35
M  SDT   1 MRV_IMPLICIT_H                                        
M  SDD   1     0.5304   -0.4125    DR    ALL  0       0  
M  SED   1 IMPL_H1
M  END
> <IC50(uM)>
0.055

> <Outcome>
1.0

> <BindingDB ID>
1045606

> <BindingDB MonomerID>
501664

> <BindingDB Ligand Name>
US11028054, Example 62

> <Curation/DataSource>
US Patent

> <Article DOI>
?

> <PMID>
?

> <Patent Number>
US11028054

> <Authors>
Thunuguntla, SS; Hosahalli, S; Panigrahi, SK; Schwarz, M; Arit, M

> <Link to Ligand in BindingDB>
http://www.bindingdb.org/bind/chemsearch/marvin/MolStructure.jsp?monomerid=501664

> <Link to Ligand-Target Pair in BindingDB>
http://www.bindingdb.org/jsp/dbsearch/PrimarySearch_ki.jsp?energyterm=kJ/mole&tag=r21&monomerid=501664&enzyme=Dihydroorotate+dehydrogenase&column=ki&startPg=0&Increment=50&submit=Search

> <PubChem CID>
?

> <PubChem SID>
?

$$$$

  Mrv2115 07222212352D          

 23 24  0  0  0  0            999 V2000
    0.0000   -4.9500    0.0000 C   0  0  0  0  0  0  0  0  0  0  0  0
    0.7145   -5.3625    0.0000 C   0  0  0  0  0  0  0  0  0  0  0  0
    0.7145   -6.1875    0.0000 O   0  0  0  0  0  0  0  0  0  0  0  0
    1.4289   -4.9500    0.0000 C   0  0  0  0  0  0  0  0  0  0  0  0
    1.4289   -4.1250    0.0000 C   0  0  0  0  0  0  0  0  0  0  0  0
    1.4289   -3.3000    0.0000 N   0  0  0  0  0  0  0  0  0  0  0  0
    2.1434   -5.3625    0.0000 C   0  0  0  0  0  0  0  0  0  0  0  0
    2.1434   -6.1875    0.0000 O   0  0  0  0  0  0  0  0  0  0  0  0
    2.8579   -4.9500    0.0000 N   0  0  0  0  0  0  0  0  0  0  0  0
    3.5724   -5.3625    0.0000 C   0  0  0  0  0  0  0  0  0  0  0  0
    4.2868   -4.9500    0.0000 C   0  0  0  0  0  0  0  0  0  0  0  0
    5.0013   -5.3625    0.0000 C   0  0  0  0  0  0  0  0  0  0  0  0
    5.0013   -6.1875    0.0000 C   0  0  0  0  0  0  0  0  0  0  0  0
    5.7158   -6.6000    0.0000 C   0  0  0  0  0  0  0  0  0  0  0  0
    6.4302   -6.1875    0.0000 C   0  0  0  0  0  0  0  0  0  0  0  0
    7.1447   -6.6000    0.0000 C   0  0  0  0  0  0  0  0  0  0  0  0
    7.1447   -7.4250    0.0000 C   0  0  0  0  0  0  0  0  0  0  0  0
    6.4302   -7.8375    0.0000 C   0  0  0  0  0  0  0  0  0  0  0  0
    5.7158   -7.4250    0.0000 C   0  0  0  0  0  0  0  0  0  0  0  0
    5.0013   -7.8375    0.0000 Cl  0  0  0  0  0  0  0  0  0  0  0  0
    4.2868   -6.6000    0.0000 C   0  0  0  0  0  0  0  0  0  0  0  0
    3.5724   -6.1875    0.0000 C   0  0  0  0  0  0  0  0  0  0  0  0
    2.8579   -6.6000    0.0000 Cl  0  0  0  0  0  0  0  0  0  0  0  0
  1  2  1  0  0  0  0
  2  3  2  0  0  0  0
  2  4  1  0  0  0  0
  4  5  1  0  0  0  0
  5  6  3  0  0  0  0
  4  7  1  0  0  0  0
  7  8  2  0  0  0  0
  7  9  1  0  0  0  0
  9 10  1  0  0  0  0
 10 11  4  0  0  0  0
 11 12  4  0  0  0  0
 12 13  4  0  0  0  0
 13 14  1  0  0  0  0
 14 15  4  0  0  0  0
 15 16  4  0  0  0  0
 16 17  4  0  0  0  0
 17 18  4  0  0  0  0
 18 19  4  0  0  0  0
 14 19  4  0  0  0  0
 19 20  1  0  0  0  0
 13 21  4  0  0  0  0
 21 22  4  0  0  0  0
 10 22  4  0  0  0  0
 22 23  1  0  0  0  0
M  END
> <IC50(uM)>
0.18

> <Outcome>
1.0

> <BindingDB ID>
52787

> <BindingDB MonomerID>
29027

> <BindingDB Ligand Name>
cyanohydroxybutenamide, 17

> <Curation/DataSource>
Curated from the literature by BindingDB

> <Article DOI>
10.1021/jm800963t

> <PMID>
19351152

> <Patent Number>
?

> <Authors>
Davies, M; Heikkil&auml;, T; McConkey, GA; Fishwick, CW; Parsons, MR; Johnson, AP

> <Link to Ligand in BindingDB>
http://www.bindingdb.org/bind/chemsearch/marvin/MolStructure.jsp?monomerid=29027

> <Link to Ligand-Target Pair in BindingDB>
http://www.bindingdb.org/jsp/dbsearch/PrimarySearch_ki.jsp?energyterm=kJ/mole&tag=r21&monomerid=29027&enzyme=Dihydroorotate+dehydrogenase&column=ki&startPg=0&Increment=50&submit=Search

> <PubChem CID>
91896053

> <PubChem SID>
81054456

$$$$

  Mrv2115 07222212352D          

 22 24  0  0  0  0            999 V2000
    4.0668    2.3479    0.0000 C   0  0  0  0  0  0  0  0  0  0  0  0
    3.3523    1.9354    0.0000 C   0  0  0  0  0  0  0  0  0  0  0  0
    3.3523    1.1104    0.0000 C   0  0  0  0  0  0  0  0  0  0  0  0
    2.6378    0.6979    0.0000 C   0  0  0  0  0  0  0  0  0  0  0  0
    2.6378   -0.1271    0.0000 N   0  0  0  0  0  0  0  0  0  0  0  0
    1.9233   -0.5396    0.0000 C   0  0  0  0  0  0  0  0  0  0  0  0
    1.9233   -1.3646    0.0000 C   0  0  0  0  0  0  0  0  0  0  0  0
    1.2089   -1.7771    0.0000 C   0  0  0  0  0  0  0  0  0  0  0  0
    0.4944   -1.3646    0.0000 C   0  0  0  0  0  0  0  0  0  0  0  0
   -0.2201   -1.7771    0.0000 C   0  0  0  0  0  0  0  0  0  0  0  0
    0.4944   -0.5396    0.0000 C   0  0  0  0  0  0  0  0  0  0  0  0
   -0.2201   -0.1271    0.0000 C   0  0  0  0  0  0  0  0  0  0  0  0
   -0.9345    0.2854    0.0000 F   0  0  0  0  0  0  0  0  0  0  0  0
    0.1924    0.5874    0.0000 F   0  0  0  0  0  0  0  0  0  0  0  0
   -0.6326   -0.8415    0.0000 F   0  0  0  0  0  0  0  0  0  0  0  0
    1.2089   -0.1271    0.0000 C   0  0  0  0  0  0  0  0  0  0  0  0
    1.9233    1.1104    0.0000 N   0  0  0  0  0  0  0  0  0  0  0  0
    1.1387    0.8555    0.0000 N   0  0  0  0  0  0  0  0  0  0  0  0
    0.6538    1.5229    0.0000 C   0  0  0  0  0  0  0  0  0  0  0  0
    1.1387    2.1904    0.0000 N   0  0  0  0  0  0  0  0  0  0  0  0
    1.9233    1.9354    0.0000 C   0  0  0  0  0  0  0  0  0  0  0  0
    2.6378    2.3479    0.0000 N   0  0  0  0  0  0  0  0  0  0  0  0
  1  2  1  0  0  0  0
  2  3  4  0  0  0  0
  3  4  4  0  0  0  0
  4  5  1  0  0  0  0
  5  6  1  0  0  0  0
  6  7  4  0  0  0  0
  7  8  4  0  0  0  0
  8  9  4  0  0  0  0
  9 10  1  0  0  0  0
  9 11  4  0  0  0  0
 11 12  1  0  0  0  0
 12 13  1  0  0  0  0
 12 14  1  0  0  0  0
 12 15  1  0  0  0  0
 11 16  4  0  0  0  0
  6 16  4  0  0  0  0
  4 17  4  0  0  0  0
 17 18  4  0  0  0  0
 18 19  4  0  0  0  0
 19 20  4  0  0  0  0
 20 21  4  0  0  0  0
 17 21  4  0  0  0  0
 21 22  4  0  0  0  0
  2 22  4  0  0  0  0
M  END
> <IC50(uM)>
100.0

> <Outcome>
0.0

> <BindingDB ID>
52452

> <BindingDB MonomerID>
28839

> <BindingDB Ligand Name>
5-methyl-N-[4-methyl-3-(trifluoromethyl)phenyl]-[1,2,4]triazolo[1,5-a]pyrimidin-7-amine::triazolopyrimidine-based compound, DSM122

> <Curation/DataSource>
Curated from the literature by BindingDB

> <Article DOI>
10.1021/jm801343r

> <PMID>
19296651

> <Patent Number>
?

> <Authors>
Gujjar, R; Marwaha, A; El Mazouni, F; White, J; White, KL; Creason, S; Shackleford, DM; Baldwin, J; Charman, WN; Buckner, FS; Charman, S; Rathod, PK; Phillips, MA

> <Link to Ligand in BindingDB>
http://www.bindingdb.org/bind/chemsearch/marvin/MolStructure.jsp?monomerid=28839

> <Link to Ligand-Target Pair in BindingDB>
http://www.bindingdb.org/jsp/dbsearch/PrimarySearch_ki.jsp?energyterm=kJ/mole&tag=r21&monomerid=28839&enzyme=Dihydroorotate+Dehydrogenase+%28DHODH%29&column=ki&startPg=0&Increment=50&submit=Search

> <PubChem CID>
25263432

> <PubChem SID>
58098027

$$$$

  Mrv2115 07222212352D          

 37 39  0  0  0  0            999 V2000
    2.1434   -2.8875    0.0000 C   0  0  0  0  0  0  0  0  0  0  0  0
    2.1434   -3.7125    0.0000 C   0  0  0  0  0  0  0  0  0  0  0  0
    1.4289   -4.1250    0.0000 C   0  0  0  0  0  0  0  0  0  0  0  0
    1.4289   -4.9500    0.0000 N   0  0  0  0  0  0  0  0  0  0  0  0
    0.7615   -5.4349    0.0000 C   0  0  0  0  0  0  0  0  0  0  0  0
   -0.0231   -5.1800    0.0000 C   0  0  0  0  0  0  0  0  0  0  0  0
   -0.1946   -4.3730    0.0000 O   0  0  0  0  0  0  0  0  0  0  0  0
   -0.6362   -5.7320    0.0000 O   0  0  0  0  0  0  0  0  0  0  0  0
    1.0164   -6.2195    0.0000 N   0  0  0  0  0  0  0  0  0  0  0  0
    1.8414   -6.2195    0.0000 N   0  0  0  0  0  0  0  0  0  0  0  0
    2.3264   -6.8870    0.0000 C   0  0  0  0  0  0  0  0  0  0  0  0
    3.1468   -6.8007    0.0000 C   0  0  0  0  0  0  0  0  0  0  0  0
    3.6318   -7.4682    0.0000 C   0  0  0  0  0  0  0  0  0  0  0  0
    4.4522   -7.3820    0.0000 O   0  0  0  0  0  0  0  0  0  0  0  0
    4.7878   -6.6283    0.0000 C   0  0  0  0  0  0  0  0  0  0  0  0
    4.3029   -5.9608    0.0000 C   0  0  0  0  0  0  0  0  0  0  0  0
    5.6083   -6.5420    0.0000 C   0  0  0  0  0  0  0  0  0  0  0  0
    5.6945   -7.3625    0.0000 F   0  0  0  0  0  0  0  0  0  0  0  0
    5.5221   -5.7216    0.0000 F   0  0  0  0  0  0  0  0  0  0  0  0
    6.4288   -6.4558    0.0000 F   0  0  0  0  0  0  0  0  0  0  0  0
    3.2962   -8.2219    0.0000 C   0  0  0  0  0  0  0  0  0  0  0  0
    3.7811   -8.8893    0.0000 C   0  0  0  0  0  0  0  0  0  0  0  0
    3.4456   -9.6430    0.0000 O   0  0  0  0  0  0  0  0  0  0  0  0
    4.6016   -8.8031    0.0000 N   0  0  0  0  0  0  0  0  0  0  0  0
    5.0865   -9.4705    0.0000 C   0  0  0  0  0  0  0  0  0  0  0  0
    5.9070   -9.3843    0.0000 C   0  0  0  0  0  0  0  0  0  0  0  0
    6.2426   -8.6306    0.0000 F   0  0  0  0  0  0  0  0  0  0  0  0
    6.3919  -10.0517    0.0000 C   0  0  0  0  0  0  0  0  0  0  0  0
    6.0564  -10.8054    0.0000 C   0  0  0  0  0  0  0  0  0  0  0  0
    5.2359  -10.8916    0.0000 C   0  0  0  0  0  0  0  0  0  0  0  0
    4.7510  -10.2242    0.0000 C   0  0  0  0  0  0  0  0  0  0  0  0
    3.9305  -10.3104    0.0000 Cl  0  0  0  0  0  0  0  0  0  0  0  0
    2.4757   -8.3081    0.0000 C   0  0  0  0  0  0  0  0  0  0  0  0
    1.9908   -7.6407    0.0000 C   0  0  0  0  0  0  0  0  0  0  0  0
    1.1703   -7.7269    0.0000 F   0  0  0  0  0  0  0  0  0  0  0  0
    2.0964   -5.4349    0.0000 C   0  0  0  0  0  0  0  0  0  0  0  0
    2.8810   -5.1800    0.0000 O   0  0  0  0  0  0  0  0  0  0  0  0
  1  2  2  0  0  0  0
  2  3  1  0  0  0  0
  3  4  1  0  0  0  0
  4  5  4  0  0  0  0
  5  6  1  0  0  0  0
  6  7  2  0  0  0  0
  6  8  1  0  0  0  0
  5  9  4  0  0  0  0
  9 10  4  0  0  0  0
 10 11  1  0  0  0  0
 11 12  4  0  0  0  0
 12 13  4  0  0  0  0
 13 14  1  0  0  0  0
 14 15  1  0  0  0  0
 15 16  1  0  0  0  0
 15 17  1  0  0  0  0
 17 18  1  0  0  0  0
 17 19  1  0  0  0  0
 17 20  1  0  0  0  0
 13 21  4  0  0  0  0
 21 22  1  0  0  0  0
 22 23  2  0  0  0  0
 22 24  1  0  0  0  0
 24 25  1  0  0  0  0
 25 26  4  0  0  0  0
 26 27  1  0  0  0  0
 26 28  4  0  0  0  0
 28 29  4  0  0  0  0
 29 30  4  0  0  0  0
 30 31  4  0  0  0  0
 25 31  4  0  0  0  0
 31 32  1  0  0  0  0
 21 33  4  0  0  0  0
 33 34  4  0  0  0  0
 11 34  4  0  0  0  0
 34 35  1  0  0  0  0
 10 36  4  0  0  0  0
  4 36  4  0  0  0  0
 36 37  2  0  0  0  0
M  END
> <IC50(uM)>
0.002

> <Outcome>
1.0

> <BindingDB ID>
1098841; 972687

> <BindingDB MonomerID>
470565

> <BindingDB Ligand Name>
1-(4-[(2-chloro-6-fluorophenyl)carbamoyl]-2-fluoro-5-{[(2S)-1,1,1-trifluoropropan-2-yl]oxy}phenyl)-5-oxo-4-(prop-2-en-1-yl)-4,5-dihydro-1H-1,2,4-triazole-3-carboxylic acid::US10815215, Example 225::US11130745, Example 225; 1-(4-[(2-chloro-6-fluorophenyl)carbamoyl]-2-fluoro-5-{[(2S)-1,1,1-trifluoropropan-2-yl]oxy}phenyl)-5-oxo-4-(prop-2-en-1-yl)-4,5-dihydro-1H-1,2,4-triazole-3-carboxylic acid::US10815215, Example 225

> <Curation/DataSource>
US Patent

> <Article DOI>
?

> <PMID>
?

> <Patent Number>
US11130745; US10815215

> <Authors>
Gradl, SN; Nguyen, D; Eis, K; Gunther, J; Stellfeld, T; Janzer, A; Christian, S; Muller, T; Sheikh, SE; Sykes, DB; Ferrara, SJ; Krober, M; Merz, C; Niehues, M; Schafer, M; Zimmermann, K; Nising, CF; Gradl, SN; Nguyen, D; Eis, K; Gunther, J; Stellfeld, T; Janzer, A; Christian, S; Muller, T; Sheikh, SE; Zhou, HJ; Zhao, C; Sykes, DB; Ferrara, SJ; Liu, K; Krober, M; Merz, C; Niehues, M; Schafer, M; Zimmermann, K; Nising, CF

> <Link to Ligand in BindingDB>
http://www.bindingdb.org/bind/chemsearch/marvin/MolStructure.jsp?monomerid=470565

> <Link to Ligand-Target Pair in BindingDB>
http://www.bindingdb.org/jsp/dbsearch/PrimarySearch_ki.jsp?energyterm=kJ/mole&tag=r21&monomerid=470565&enzyme=Dihydroorotate+dehydrogenase&column=ki&startPg=0&Increment=50&submit=Search

> <PubChem CID>
142335797

> <PubChem SID>
441609741

$$$$

  Mrv2115 07222212352D          

 26 28  0  0  0  0            999 V2000
   -2.8579   -1.6500    0.0000 C   0  0  0  0  0  0  0  0  0  0  0  0
   -2.1434   -1.2375    0.0000 C   0  0  0  0  0  0  0  0  0  0  0  0
   -2.1434   -0.4125    0.0000 O   0  0  0  0  0  0  0  0  0  0  0  0
   -1.4289    0.0000    0.0000 C   0  0  0  0  0  0  0  0  0  0  0  0
   -0.7145   -0.4125    0.0000 O   0  0  0  0  0  0  0  0  0  0  0  0
   -1.4289    0.8250    0.0000 C   0  0  0  0  0  0  0  0  0  0  0  0
   -2.1434    1.2375    0.0000 C   0  0  0  0  0  0  0  0  0  0  0  0
   -2.1434    2.0625    0.0000 C   0  0  0  0  0  0  0  0  0  0  0  0
   -1.4289    2.4750    0.0000 C   0  0  0  0  0  0  0  0  0  0  0  0
   -0.7145    2.0625    0.0000 C   0  0  0  0  0  0  0  0  0  0  0  0
   -0.7145    1.2375    0.0000 C   0  0  0  0  0  0  0  0  0  0  0  0
    0.0000    0.8250    0.0000 C   0  0  0  0  0  0  0  0  0  0  0  0
    0.0000    0.0000    0.0000 N   0  0  0  0  0  0  0  0  0  0  0  0
    0.7145   -0.4125    0.0000 N   0  0  0  0  0  0  0  0  0  0  0  0
    0.7145   -1.2375    0.0000 C   0  0  0  0  0  0  0  0  0  0  0  0
    1.3819   -1.7224    0.0000 N   0  0  0  0  0  0  0  0  0  0  0  0
    1.1270   -2.5070    0.0000 C   0  0  0  0  0  0  0  0  0  0  0  0
    1.6119   -3.1745    0.0000 C   0  0  0  0  0  0  0  0  0  0  0  0
    2.4324   -3.0882    0.0000 C   0  0  0  0  0  0  0  0  0  0  0  0
    2.9173   -3.7557    0.0000 C   0  0  0  0  0  0  0  0  0  0  0  0
    2.5817   -4.5094    0.0000 C   0  0  0  0  0  0  0  0  0  0  0  0
    1.7613   -4.5956    0.0000 C   0  0  0  0  0  0  0  0  0  0  0  0
    1.2763   -3.9282    0.0000 C   0  0  0  0  0  0  0  0  0  0  0  0
    0.4559   -4.0144    0.0000 Cl  0  0  0  0  0  0  0  0  0  0  0  0
    0.3020   -2.5070    0.0000 C   0  0  0  0  0  0  0  0  0  0  0  0
    0.0470   -1.7224    0.0000 S   0  0  0  0  0  0  0  0  0  0  0  0
  1  2  1  0  0  0  0
  2  3  1  0  0  0  0
  3  4  1  0  0  0  0
  4  5  2  0  0  0  0
  4  6  1  0  0  0  0
  6  7  4  0  0  0  0
  7  8  4  0  0  0  0
  8  9  4  0  0  0  0
  9 10  4  0  0  0  0
 10 11  4  0  0  0  0
  6 11  4  0  0  0  0
 11 12  1  0  0  0  0
 12 13  2  0  0  0  0
 13 14  1  0  0  0  0
 14 15  1  0  0  0  0
 15 16  4  0  0  0  0
 16 17  4  0  0  0  0
 17 18  1  0  0  0  0
 18 19  4  0  0  0  0
 19 20  4  0  0  0  0
 20 21  4  0  0  0  0
 21 22  4  0  0  0  0
 22 23  4  0  0  0  0
 18 23  4  0  0  0  0
 23 24  1  0  0  0  0
 17 25  4  0  0  0  0
 25 26  4  0  0  0  0
 15 26  4  0  0  0  0
M  END
> <IC50(uM)>
2.336

> <Outcome>
0.0

> <BindingDB ID>
1001135

> <BindingDB MonomerID>
482821

> <BindingDB Ligand Name>
US10919869, No.  A1

> <Curation/DataSource>
US Patent

> <Article DOI>
?

> <PMID>
?

> <Patent Number>
US10919869

> <Authors>
Li, H; Xu, Y; Wang, R; Zhao, Z; Song, W; Xu, L

> <Link to Ligand in BindingDB>
http://www.bindingdb.org/bind/chemsearch/marvin/MolStructure.jsp?monomerid=482821

> <Link to Ligand-Target Pair in BindingDB>
http://www.bindingdb.org/jsp/dbsearch/PrimarySearch_ki.jsp?energyterm=kJ/mole&tag=r21&monomerid=482821&enzyme=Dihydroorotate+dehydrogenase&column=ki&startPg=0&Increment=50&submit=Search

> <PubChem CID>
129892292

> <PubChem SID>
443551962

$$$$

  Mrv2115 07222212352D          

 34 36  0  0  0  0            999 V2000
    4.2868   -2.4750    0.0000 C   0  0  0  0  0  0  0  0  0  0  0  0
    3.5724   -2.8875    0.0000 C   0  0  0  0  0  0  0  0  0  0  0  0
    2.8579   -2.4750    0.0000 O   0  0  0  0  0  0  0  0  0  0  0  0
    2.1434   -2.8875    0.0000 C   0  0  0  0  0  0  0  0  0  0  0  0
    2.1434   -3.7125    0.0000 C   0  0  0  0  0  0  0  0  0  0  0  0
    1.4289   -4.1250    0.0000 C   0  0  0  0  0  0  0  0  0  0  0  0
    1.4289   -4.9500    0.0000 N   0  0  0  0  0  0  0  0  0  0  0  0
    2.0964   -5.4349    0.0000 N   0  0  0  0  0  0  0  0  0  0  0  0
    1.8414   -6.2195    0.0000 C   0  0  0  0  0  0  0  0  0  0  0  0
    2.3264   -6.8870    0.0000 C   0  0  0  0  0  0  0  0  0  0  0  0
    1.9908   -7.6407    0.0000 O   0  0  0  0  0  0  0  0  0  0  0  0
    1.0164   -6.2195    0.0000 N   0  0  0  0  0  0  0  0  0  0  0  0
    0.5315   -6.8870    0.0000 C   0  0  0  0  0  0  0  0  0  0  0  0
    0.7615   -5.4349    0.0000 C   0  0  0  0  0  0  0  0  0  0  0  0
   -0.0231   -5.1800    0.0000 O   0  0  0  0  0  0  0  0  0  0  0  0
    0.7145   -3.7125    0.0000 C   0  0  0  0  0  0  0  0  0  0  0  0
    0.0000   -4.1250    0.0000 F   0  0  0  0  0  0  0  0  0  0  0  0
    0.7145   -2.8875    0.0000 C   0  0  0  0  0  0  0  0  0  0  0  0
    1.4289   -2.4750    0.0000 C   0  0  0  0  0  0  0  0  0  0  0  0
    1.4289   -1.6500    0.0000 C   0  0  0  0  0  0  0  0  0  0  0  0
    2.1434   -1.2375    0.0000 O   0  0  0  0  0  0  0  0  0  0  0  0
    0.7145   -1.2375    0.0000 N   0  0  0  0  0  0  0  0  0  0  0  0
    0.7145   -0.4125    0.0000 C   0  0  0  0  0  0  0  0  0  0  0  0
    0.0000    0.0000    0.0000 C   0  0  0  0  0  0  0  0  0  0  0  0
   -0.7145   -0.4125    0.0000 F   0  0  0  0  0  0  0  0  0  0  0  0
    0.0000    0.8250    0.0000 C   0  0  0  0  0  0  0  0  0  0  0  0
    0.7145    1.2375    0.0000 C   0  0  0  0  0  0  0  0  0  0  0  0
    1.4289    0.8250    0.0000 C   0  0  0  0  0  0  0  0  0  0  0  0
    1.4289    0.0000    0.0000 C   0  0  0  0  0  0  0  0  0  0  0  0
    2.1434   -0.4125    0.0000 Cl  0  0  0  0  0  0  0  0  0  0  0  0
    3.5724   -3.7125    0.0000 C   0  0  0  0  0  0  0  0  0  0  0  0
    2.7474   -3.7125    0.0000 F   0  0  0  0  0  0  0  0  0  0  0  0
    4.3974   -3.7125    0.0000 F   0  0  0  0  0  0  0  0  0  0  0  0
    3.5724   -4.5375    0.0000 F   0  0  0  0  0  0  0  0  0  0  0  0
  1  2  1  0  0  0  0
  2  3  1  0  0  0  0
  3  4  1  0  0  0  0
  4  5  4  0  0  0  0
  5  6  4  0  0  0  0
  6  7  1  0  0  0  0
  7  8  4  0  0  0  0
  8  9  4  0  0  0  0
  9 10  1  0  0  0  0
 10 11  1  0  0  0  0
  9 12  4  0  0  0  0
 12 13  1  0  0  0  0
 12 14  4  0  0  0  0
  7 14  4  0  0  0  0
 14 15  2  0  0  0  0
  6 16  4  0  0  0  0
 16 17  1  0  0  0  0
 16 18  4  0  0  0  0
 18 19  4  0  0  0  0
  4 19  4  0  0  0  0
 19 20  1  0  0  0  0
 20 21  2  0  0  0  0
 20 22  1  0  0  0  0
 22 23  1  0  0  0  0
 23 24  4  0  0  0  0
 24 25  1  0  0  0  0
 24 26  4  0  0  0  0
 26 27  4  0  0  0  0
 27 28  4  0  0  0  0
 28 29  4  0  0  0  0
 23 29  4  0  0  0  0
 29 30  1  0  0  0  0
  2 31  1  0  0  0  0
 31 32  1  0  0  0  0
 31 33  1  0  0  0  0
 31 34  1  0  0  0  0
M  END
> <IC50(uM)>
0.00975

> <Outcome>
1.0

> <BindingDB ID>
972577; 1098731

> <BindingDB MonomerID>
470452

> <BindingDB Ligand Name>
N-(2-chloro-6-fluorophenyl)-5-fluoro-4-[3-(hydroxymethyl)-4-methyl-5-oxo-4,5-dihydro-1H-1,2,4-triazol-1-yl]-2-{[(2S)-1,1,1-trifluoropropan-2-yl]oxy}benzamide::US10815215, Example 119; N-(2-chloro-6-fluorophenyl)-5-fluoro-4-[3-(hydroxymethyl)-4-methyl-5-oxo-4,5-dihydro-1H-1,2,4-triazol-1-yl]-2-{[(2S)-1,1,1-trifluoropropan-2-yl]oxy}benzamide::US10815215, Example 119::US11130745, Example 119

> <Curation/DataSource>
US Patent

> <Article DOI>
?

> <PMID>
?

> <Patent Number>
US10815215; US11130745

> <Authors>
Gradl, SN; Nguyen, D; Eis, K; Gunther, J; Stellfeld, T; Janzer, A; Christian, S; Muller, T; Sheikh, SE; Zhou, HJ; Zhao, C; Sykes, DB; Ferrara, SJ; Liu, K; Krober, M; Merz, C; Niehues, M; Schafer, M; Zimmermann, K; Nising, CF; Gradl, SN; Nguyen, D; Eis, K; Gunther, J; Stellfeld, T; Janzer, A; Christian, S; Muller, T; Sheikh, SE; Sykes, DB; Ferrara, SJ; Krober, M; Merz, C; Niehues, M; Schafer, M; Zimmermann, K; Nising, CF

> <Link to Ligand in BindingDB>
http://www.bindingdb.org/bind/chemsearch/marvin/MolStructure.jsp?monomerid=470452

> <Link to Ligand-Target Pair in BindingDB>
http://www.bindingdb.org/jsp/dbsearch/PrimarySearch_ki.jsp?energyterm=kJ/mole&tag=r21&monomerid=470452&enzyme=Dihydroorotate+dehydrogenase&column=ki&startPg=0&Increment=50&submit=Search

> <PubChem CID>
134470394

> <PubChem SID>
441609629

$$$$

  Mrv2115 07222212352D          

 18 19  0  0  0  0            999 V2000
    1.4289   -1.6500    0.0000 C   0  0  0  0  0  0  0  0  0  0  0  0
    1.4289   -2.4750    0.0000 N   0  0  0  0  0  0  0  0  0  0  0  0
    2.0964   -2.9599    0.0000 N   0  0  0  0  0  0  0  0  0  0  0  0
    1.8414   -3.7445    0.0000 C   0  0  0  0  0  0  0  0  0  0  0  0
    2.3264   -4.4120    0.0000 O   0  0  0  0  0  0  0  0  0  0  0  0
    1.0164   -3.7445    0.0000 C   0  0  0  0  0  0  0  0  0  0  0  0
    0.5315   -4.4120    0.0000 C   0  0  0  0  0  0  0  0  0  0  0  0
   -0.2890   -4.3257    0.0000 O   0  0  0  0  0  0  0  0  0  0  0  0
    0.8671   -5.1657    0.0000 O   0  0  0  0  0  0  0  0  0  0  0  0
    0.7615   -2.9599    0.0000 C   0  0  0  0  0  0  0  0  0  0  0  0
   -0.0231   -2.7050    0.0000 C   0  0  0  0  0  0  0  0  0  0  0  0
   -0.6362   -3.2570    0.0000 S   0  0  0  0  0  0  0  0  0  0  0  0
   -1.4208   -3.0021    0.0000 C   0  0  0  0  0  0  0  0  0  0  0  0
   -2.0339   -3.5541    0.0000 C   0  0  0  0  0  0  0  0  0  0  0  0
   -2.8186   -3.2992    0.0000 C   0  0  0  0  0  0  0  0  0  0  0  0
   -2.9901   -2.4922    0.0000 C   0  0  0  0  0  0  0  0  0  0  0  0
   -2.3770   -1.9402    0.0000 C   0  0  0  0  0  0  0  0  0  0  0  0
   -1.5924   -2.1951    0.0000 C   0  0  0  0  0  0  0  0  0  0  0  0
  1  2  1  0  0  0  0
  2  3  4  0  0  0  0
  3  4  4  0  0  0  0
  4  5  1  0  0  0  0
  4  6  4  0  0  0  0
  6  7  1  0  0  0  0
  7  8  2  0  0  0  0
  7  9  1  0  0  0  0
  6 10  4  0  0  0  0
  2 10  4  0  0  0  0
 10 11  1  0  0  0  0
 11 12  1  0  0  0  0
 12 13  1  0  0  0  0
 13 14  4  0  0  0  0
 14 15  4  0  0  0  0
 15 16  4  0  0  0  0
 16 17  4  0  0  0  0
 17 18  4  0  0  0  0
 13 18  4  0  0  0  0
M  END
> <IC50(uM)>
250.0

> <Outcome>
0.0

> <BindingDB ID>
51240986

> <BindingDB MonomerID>
50507734

> <BindingDB Ligand Name>
CHEMBL4514633

> <Curation/DataSource>
ChEMBL

> <Article DOI>
10.1016/j.ejmech.2018.11.044

> <PMID>
30529545

> <Patent Number>
?

> <Authors>
Pippione, AC; Sainas, S; Goyal, P; Fritzson, I; Cassiano, GC; Giraudo, A; Giorgis, M; Tavella, TA; Bagnati, R; Rolando, B; Caing-Carlsson, R; Costa, FTM; Andrade, CH; Al-Karadaghi, S; Boschi, D; Friemann, R; Lolli, ML

> <Link to Ligand in BindingDB>
http://www.bindingdb.org/bind/chemsearch/marvin/MolStructure.jsp?monomerid=50507734

> <Link to Ligand-Target Pair in BindingDB>
http://www.bindingdb.org/jsp/dbsearch/PrimarySearch_ki.jsp?energyterm=kJ/mole&tag=r21&monomerid=50507734&enzyme=Dihydroorotate+dehydrogenase&column=ki&startPg=0&Increment=50&submit=Search

> <PubChem CID>
155539488

> <PubChem SID>
440716319

$$$$

  Mrv2115 07222212352D          

 25 28  0  0  0  0            999 V2000
    3.9934    2.4750    0.0000 O   0  0  0  0  0  0  0  0  0  0  0  0
    3.2789    2.0625    0.0000 C   0  0  0  0  0  0  0  0  0  0  0  0
    2.5645    2.4750    0.0000 O   0  0  0  0  0  0  0  0  0  0  0  0
    3.2789    1.2375    0.0000 C   0  0  0  0  0  0  0  0  0  0  0  0
    3.9934    0.8250    0.0000 C   0  0  0  0  0  0  0  0  0  0  0  0
    3.9934    0.0000    0.0000 C   0  0  0  0  0  0  0  0  0  0  0  0
    4.7079   -0.4125    0.0000 Br  0  0  0  0  0  0  0  0  0  0  0  0
    3.2789   -0.4125    0.0000 C   0  0  0  0  0  0  0  0  0  0  0  0
    2.5645    0.0000    0.0000 C   0  0  0  0  0  0  0  0  0  0  0  0
    1.7798   -0.2549    0.0000 N   0  0  0  0  0  0  0  0  0  0  0  0
    1.2949    0.4125    0.0000 C   0  0  0  0  0  0  0  0  0  0  0  0
    0.4699    0.4125    0.0000 C   0  0  0  0  0  0  0  0  0  0  0  0
    0.0574   -0.3020    0.0000 C   0  0  0  0  0  0  0  0  0  0  0  0
   -0.7676   -0.3020    0.0000 C   0  0  0  0  0  0  0  0  0  0  0  0
   -1.1801    0.4125    0.0000 C   0  0  0  0  0  0  0  0  0  0  0  0
   -2.0051    0.4125    0.0000 C   0  0  0  0  0  0  0  0  0  0  0  0
   -2.4176   -0.3020    0.0000 C   0  0  0  0  0  0  0  0  0  0  0  0
   -3.2426   -0.3020    0.0000 C   0  0  0  0  0  0  0  0  0  0  0  0
   -3.6551    0.4125    0.0000 C   0  0  0  0  0  0  0  0  0  0  0  0
   -3.2426    1.1270    0.0000 C   0  0  0  0  0  0  0  0  0  0  0  0
   -2.4176    1.1270    0.0000 C   0  0  0  0  0  0  0  0  0  0  0  0
   -0.7676    1.1270    0.0000 C   0  0  0  0  0  0  0  0  0  0  0  0
    0.0574    1.1270    0.0000 C   0  0  0  0  0  0  0  0  0  0  0  0
    1.7798    1.0799    0.0000 N   0  0  0  0  0  0  0  0  0  0  0  0
    2.5645    0.8250    0.0000 C   0  0  0  0  0  0  0  0  0  0  0  0
  1  2  2  0  0  0  0
  2  3  1  0  0  0  0
  2  4  1  0  0  0  0
  4  5  4  0  0  0  0
  5  6  4  0  0  0  0
  6  7  1  0  0  0  0
  6  8  4  0  0  0  0
  8  9  4  0  0  0  0
  9 10  4  0  0  0  0
 10 11  4  0  0  0  0
 11 12  1  0  0  0  0
 12 13  4  0  0  0  0
 13 14  4  0  0  0  0
 14 15  4  0  0  0  0
 15 16  1  0  0  0  0
 16 17  4  0  0  0  0
 17 18  4  0  0  0  0
 18 19  4  0  0  0  0
 19 20  4  0  0  0  0
 20 21  4  0  0  0  0
 16 21  4  0  0  0  0
 15 22  4  0  0  0  0
 22 23  4  0  0  0  0
 12 23  4  0  0  0  0
 11 24  4  0  0  0  0
 24 25  4  0  0  0  0
  4 25  4  0  0  0  0
  9 25  4  0  0  0  0
M  STY  1   1 DAT
M  SAL   1  1  10
M  SDT   1 MRV_IMPLICIT_H                                        
M  SDD   1     0.5304   -0.4125    DR    ALL  0       0  
M  SED   1 IMPL_H1
M  END
> <IC50(uM)>
0.574

> <Outcome>
1.0

> <BindingDB ID>
297745

> <BindingDB MonomerID>
155401

> <BindingDB Ligand Name>
US9006454, I6

> <Curation/DataSource>
US Patent

> <Article DOI>
?

> <PMID>
?

> <Patent Number>
US9006454

> <Authors>
Thunuguntla, SS; Subramanya, H; Kunnam, SR; Sanivaru Vijay, SR; Bingi, C; Kusanur, R; Schwarz, M; Arlt, M

> <Link to Ligand in BindingDB>
http://www.bindingdb.org/bind/chemsearch/marvin/MolStructure.jsp?monomerid=155401

> <Link to Ligand-Target Pair in BindingDB>
http://www.bindingdb.org/jsp/dbsearch/PrimarySearch_ki.jsp?energyterm=kJ/mole&tag=r21&monomerid=155401&enzyme=Dihydroorotate+dehydrogenase&column=ki&startPg=0&Increment=50&submit=Search

> <PubChem CID>
46945580

> <PubChem SID>
253658338

$$$$

  Mrv2115 07222212352D          

 29 32  0  0  0  0            999 V2000
   -2.1434   -1.2375    0.0000 C   0  0  0  0  0  0  0  0  0  0  0  0
   -1.4289   -1.6500    0.0000 C   0  0  0  0  0  0  0  0  0  0  0  0
   -0.7145   -1.2375    0.0000 C   0  0  0  0  0  0  0  0  0  0  0  0
    0.0000   -1.6500    0.0000 C   0  0  0  0  0  0  0  0  0  0  0  0
    0.7145   -1.2375    0.0000 C   0  0  0  0  0  0  0  0  0  0  0  0
    0.7145   -0.4125    0.0000 C   0  0  0  0  0  0  0  0  0  0  0  0
    1.4289    0.0000    0.0000 C   0  0  0  0  0  0  0  0  0  0  0  0
    1.4289    0.8250    0.0000 C   0  0  0  0  0  0  0  0  0  0  0  0
    2.1434    1.2375    0.0000 O   0  0  0  0  0  0  0  0  0  0  0  0
    0.7145    1.2375    0.0000 O   0  0  0  0  0  0  0  0  0  0  0  0
    2.1434   -0.4125    0.0000 C   0  0  0  0  0  0  0  0  0  0  0  0
    2.8579    0.0000    0.0000 C   0  0  0  0  0  0  0  0  0  0  0  0
    3.5724   -0.4125    0.0000 C   0  0  0  0  0  0  0  0  0  0  0  0
    4.2868   -0.0000    0.0000 F   0  0  0  0  0  0  0  0  0  0  0  0
    3.5724   -1.2375    0.0000 C   0  0  0  0  0  0  0  0  0  0  0  0
    2.8579   -1.6500    0.0000 C   0  0  0  0  0  0  0  0  0  0  0  0
    2.1434   -1.2375    0.0000 C   0  0  0  0  0  0  0  0  0  0  0  0
    1.4289   -1.6500    0.0000 N   0  0  0  0  0  0  0  0  0  0  0  0
    0.0000   -2.4750    0.0000 C   0  0  0  0  0  0  0  0  0  0  0  0
   -0.7145   -2.8875    0.0000 C   0  0  0  0  0  0  0  0  0  0  0  0
   -0.7145   -3.7125    0.0000 C   0  0  0  0  0  0  0  0  0  0  0  0
   -1.4289   -2.4750    0.0000 C   0  0  0  0  0  0  0  0  0  0  0  0
   -2.1434   -2.8875    0.0000 O   0  0  0  0  0  0  0  0  0  0  0  0
   -2.8579   -2.4750    0.0000 C   0  0  0  0  0  0  0  0  0  0  0  0
   -3.5724   -2.8875    0.0000 C   0  0  0  0  0  0  0  0  0  0  0  0
   -4.2868   -2.4750    0.0000 C   0  0  0  0  0  0  0  0  0  0  0  0
   -4.2868   -1.6500    0.0000 C   0  0  0  0  0  0  0  0  0  0  0  0
   -3.5724   -1.2375    0.0000 C   0  0  0  0  0  0  0  0  0  0  0  0
   -2.8579   -1.6500    0.0000 C   0  0  0  0  0  0  0  0  0  0  0  0
  1  2  1  0  0  0  0
  2  3  4  0  0  0  0
  3  4  4  0  0  0  0
  4  5  1  0  0  0  0
  5  6  4  0  0  0  0
  6  7  4  0  0  0  0
  7  8  1  0  0  0  0
  8  9  2  0  0  0  0
  8 10  1  0  0  0  0
  7 11  4  0  0  0  0
 11 12  4  0  0  0  0
 12 13  4  0  0  0  0
 13 14  1  0  0  0  0
 13 15  4  0  0  0  0
 15 16  4  0  0  0  0
 16 17  4  0  0  0  0
 11 17  4  0  0  0  0
 17 18  4  0  0  0  0
  5 18  4  0  0  0  0
  4 19  4  0  0  0  0
 19 20  4  0  0  0  0
 20 21  1  0  0  0  0
 20 22  4  0  0  0  0
  2 22  4  0  0  0  0
 22 23  1  0  0  0  0
 23 24  1  0  0  0  0
 24 25  4  0  0  0  0
 25 26  4  0  0  0  0
 26 27  4  0  0  0  0
 27 28  4  0  0  0  0
 28 29  4  0  0  0  0
 24 29  4  0  0  0  0
M  END
> <IC50(uM)>
0.016

> <Outcome>
1.0

> <BindingDB ID>
51064005

> <BindingDB MonomerID>
50434229

> <BindingDB Ligand Name>
CHEMBL2385511

> <Curation/DataSource>
ChEMBL

> <Article DOI>
10.1021/ml300464h

> <PMID>
23930152

> <Patent Number>
?

> <Authors>
Das, P; Deng, X; Zhang, L; Roth, MG; Fontoura, BM; Phillips, MA; De Brabander, JK

> <Link to Ligand in BindingDB>
http://www.bindingdb.org/bind/chemsearch/marvin/MolStructure.jsp?monomerid=50434229

> <Link to Ligand-Target Pair in BindingDB>
http://www.bindingdb.org/jsp/dbsearch/PrimarySearch_ki.jsp?energyterm=kJ/mole&tag=r21&monomerid=50434229&enzyme=Dihydroorotate+dehydrogenase&column=ki&startPg=0&Increment=50&submit=Search

> <PubChem CID>
71816638

> <PubChem SID>
175446546

$$$$

  Mrv2115 07222212352D          

 26 28  0  0  0  0            999 V2000
   -2.1434   -1.2375    0.0000 C   0  0  0  0  0  0  0  0  0  0  0  0
   -2.1434   -0.4125    0.0000 N   0  0  0  0  0  0  0  0  0  0  0  0
   -2.8579    0.0000    0.0000 C   0  0  0  0  0  0  0  0  0  0  0  0
   -1.4289    0.0000    0.0000 C   0  0  0  0  0  0  0  0  0  0  0  0
   -0.7145   -0.4125    0.0000 O   0  0  0  0  0  0  0  0  0  0  0  0
   -1.4289    0.8250    0.0000 C   0  0  0  0  0  0  0  0  0  0  0  0
   -2.1434    1.2375    0.0000 C   0  0  0  0  0  0  0  0  0  0  0  0
   -2.1434    2.0625    0.0000 C   0  0  0  0  0  0  0  0  0  0  0  0
   -1.4289    2.4750    0.0000 C   0  0  0  0  0  0  0  0  0  0  0  0
   -0.7145    2.0625    0.0000 C   0  0  0  0  0  0  0  0  0  0  0  0
   -0.7145    1.2375    0.0000 C   0  0  0  0  0  0  0  0  0  0  0  0
    0.0000    0.8250    0.0000 C   0  0  0  0  0  0  0  0  0  0  0  0
    0.0000    0.0000    0.0000 N   0  0  0  0  0  0  0  0  0  0  0  0
    0.7145   -0.4125    0.0000 N   0  0  0  0  0  0  0  0  0  0  0  0
    0.7145   -1.2375    0.0000 C   0  0  0  0  0  0  0  0  0  0  0  0
    1.3819   -1.7224    0.0000 N   0  0  0  0  0  0  0  0  0  0  0  0
    1.1270   -2.5070    0.0000 C   0  0  0  0  0  0  0  0  0  0  0  0
    1.6119   -3.1745    0.0000 C   0  0  0  0  0  0  0  0  0  0  0  0
    2.4324   -3.0882    0.0000 C   0  0  0  0  0  0  0  0  0  0  0  0
    2.9173   -3.7557    0.0000 C   0  0  0  0  0  0  0  0  0  0  0  0
    2.5817   -4.5094    0.0000 C   0  0  0  0  0  0  0  0  0  0  0  0
    1.7613   -4.5956    0.0000 C   0  0  0  0  0  0  0  0  0  0  0  0
    1.2763   -3.9282    0.0000 C   0  0  0  0  0  0  0  0  0  0  0  0
    0.4559   -4.0144    0.0000 Cl  0  0  0  0  0  0  0  0  0  0  0  0
    0.3020   -2.5070    0.0000 C   0  0  0  0  0  0  0  0  0  0  0  0
    0.0470   -1.7224    0.0000 S   0  0  0  0  0  0  0  0  0  0  0  0
  1  2  1  0  0  0  0
  2  3  1  0  0  0  0
  2  4  1  0  0  0  0
  4  5  2  0  0  0  0
  4  6  1  0  0  0  0
  6  7  4  0  0  0  0
  7  8  4  0  0  0  0
  8  9  4  0  0  0  0
  9 10  4  0  0  0  0
 10 11  4  0  0  0  0
  6 11  4  0  0  0  0
 11 12  1  0  0  0  0
 12 13  2  0  0  0  0
 13 14  1  0  0  0  0
 14 15  1  0  0  0  0
 15 16  4  0  0  0  0
 16 17  4  0  0  0  0
 17 18  1  0  0  0  0
 18 19  4  0  0  0  0
 19 20  4  0  0  0  0
 20 21  4  0  0  0  0
 21 22  4  0  0  0  0
 22 23  4  0  0  0  0
 18 23  4  0  0  0  0
 23 24  1  0  0  0  0
 17 25  4  0  0  0  0
 25 26  4  0  0  0  0
 15 26  4  0  0  0  0
M  END
> <IC50(uM)>
50.0

> <Outcome>
0.0

> <BindingDB ID>
1001147

> <BindingDB MonomerID>
482833

> <BindingDB Ligand Name>
US10919869, No.  A13

> <Curation/DataSource>
US Patent

> <Article DOI>
?

> <PMID>
?

> <Patent Number>
US10919869

> <Authors>
Li, H; Xu, Y; Wang, R; Zhao, Z; Song, W; Xu, L

> <Link to Ligand in BindingDB>
http://www.bindingdb.org/bind/chemsearch/marvin/MolStructure.jsp?monomerid=482833

> <Link to Ligand-Target Pair in BindingDB>
http://www.bindingdb.org/jsp/dbsearch/PrimarySearch_ki.jsp?energyterm=kJ/mole&tag=r21&monomerid=482833&enzyme=Dihydroorotate+dehydrogenase&column=ki&startPg=0&Increment=50&submit=Search

> <PubChem CID>
132157924

> <PubChem SID>
443551973

$$$$

  Mrv2115 07222212352D          

 26 28  0  0  0  0            999 V2000
    2.1434   -2.8875    0.0000 O   0  0  0  0  0  0  0  0  0  0  0  0
    1.4289   -2.4750    0.0000 C   0  0  0  0  0  0  0  0  0  0  0  0
    0.7145   -2.8875    0.0000 O   0  0  0  0  0  0  0  0  0  0  0  0
    1.4289   -1.6500    0.0000 C   0  0  0  0  0  0  0  0  0  0  0  0
    0.7145   -1.2375    0.0000 C   0  0  0  0  0  0  0  0  0  0  0  0
    0.0000   -1.6500    0.0000 O   0  0  0  0  0  0  0  0  0  0  0  0
    0.7145   -0.4125    0.0000 C   0  0  0  0  0  0  0  0  0  0  0  0
    0.0000    0.0000    0.0000 C   0  0  0  0  0  0  0  0  0  0  0  0
   -0.7145   -0.4125    0.0000 C   0  0  0  0  0  0  0  0  0  0  0  0
   -1.4289    0.0000    0.0000 C   0  0  0  0  0  0  0  0  0  0  0  0
   -1.4289    0.8250    0.0000 C   0  0  0  0  0  0  0  0  0  0  0  0
   -2.1434    1.2375    0.0000 Cl  0  0  0  0  0  0  0  0  0  0  0  0
   -0.7145    1.2375    0.0000 C   0  0  0  0  0  0  0  0  0  0  0  0
    0.0000    0.8250    0.0000 C   0  0  0  0  0  0  0  0  0  0  0  0
    1.4289    0.0000    0.0000 N   0  0  0  0  0  0  0  0  0  0  0  0
    2.1434   -0.4125    0.0000 C   0  0  0  0  0  0  0  0  0  0  0  0
    2.8579    0.0000    0.0000 C   0  0  0  0  0  0  0  0  0  0  0  0
    3.5724   -0.4125    0.0000 C   0  0  0  0  0  0  0  0  0  0  0  0
    3.5724   -1.2375    0.0000 C   0  0  0  0  0  0  0  0  0  0  0  0
    4.2868   -1.6500    0.0000 O   0  0  0  0  0  0  0  0  0  0  0  0
    5.0013   -1.2375    0.0000 C   0  0  0  0  0  0  0  0  0  0  0  0
    5.7158   -0.8250    0.0000 F   0  0  0  0  0  0  0  0  0  0  0  0
    5.4138   -1.9520    0.0000 F   0  0  0  0  0  0  0  0  0  0  0  0
    4.5888   -0.5230    0.0000 F   0  0  0  0  0  0  0  0  0  0  0  0
    2.8579   -1.6500    0.0000 C   0  0  0  0  0  0  0  0  0  0  0  0
    2.1434   -1.2375    0.0000 C   0  0  0  0  0  0  0  0  0  0  0  0
  1  2  2  0  0  0  0
  2  3  1  0  0  0  0
  2  4  1  0  0  0  0
  4  5  4  0  0  0  0
  5  6  1  0  0  0  0
  5  7  4  0  0  0  0
  7  8  1  0  0  0  0
  8  9  4  0  0  0  0
  9 10  4  0  0  0  0
 10 11  4  0  0  0  0
 11 12  1  0  0  0  0
 11 13  4  0  0  0  0
 13 14  4  0  0  0  0
  8 14  4  0  0  0  0
  7 15  4  0  0  0  0
 15 16  4  0  0  0  0
 16 17  4  0  0  0  0
 17 18  4  0  0  0  0
 18 19  4  0  0  0  0
 19 20  1  0  0  0  0
 20 21  1  0  0  0  0
 21 22  1  0  0  0  0
 21 23  1  0  0  0  0
 21 24  1  0  0  0  0
 19 25  4  0  0  0  0
 25 26  4  0  0  0  0
  4 26  4  0  0  0  0
 16 26  4  0  0  0  0
M  END
> <IC50(uM)>
4.0

> <Outcome>
0.0

> <BindingDB ID>
50841933

> <BindingDB MonomerID>
50201892

> <BindingDB Ligand Name>
2-(4-chlorophenyl)-3-hydroxy-6-(trifluoromethoxy)quinoline-4-carboxylic acid::CHEMBL218052

> <Curation/DataSource>
ChEMBL

> <Article DOI>
10.1021/jm0602256

> <PMID>
17201408

> <Patent Number>
?

> <Authors>
Kaila, N; Janz, K; DeBernardo, S; Bedard, PW; Camphausen, RT; Tam, S; Tsao, DH; Keith, JC; Nickerson-Nutter, C; Shilling, A; Young-Sciame, R; Wang, Q

> <Link to Ligand in BindingDB>
http://www.bindingdb.org/bind/chemsearch/marvin/MolStructure.jsp?monomerid=50201892

> <Link to Ligand-Target Pair in BindingDB>
http://www.bindingdb.org/jsp/dbsearch/PrimarySearch_ki.jsp?energyterm=kJ/mole&tag=r21&monomerid=50201892&enzyme=Dihydroorotate+dehydrogenase&column=ki&startPg=0&Increment=50&submit=Search

> <PubChem CID>
16099929

> <PubChem SID>
104081543

$$$$

  Mrv2115 07222212352D          

 26 29  0  0  0  0            999 V2000
    3.9934    5.7750    0.0000 C   0  0  0  0  0  0  0  0  0  0  0  0
    3.9934    4.9500    0.0000 C   0  0  0  0  0  0  0  0  0  0  0  0
    4.7079    4.5375    0.0000 C   0  0  0  0  0  0  0  0  0  0  0  0
    4.7079    3.7125    0.0000 C   0  0  0  0  0  0  0  0  0  0  0  0
    3.9934    3.3000    0.0000 C   0  0  0  0  0  0  0  0  0  0  0  0
    3.9934    2.4750    0.0000 C   0  0  0  0  0  0  0  0  0  0  0  0
    4.7079    2.0625    0.0000 O   0  0  0  0  0  0  0  0  0  0  0  0
    3.2789    2.0625    0.0000 N   0  0  0  0  0  0  0  0  0  0  0  0
    3.2789    1.2375    0.0000 C   0  0  0  0  0  0  0  0  0  0  0  0
    3.9934    0.8250    0.0000 C   0  0  0  0  0  0  0  0  0  0  0  0
    3.9934    0.0000    0.0000 C   0  0  0  0  0  0  0  0  0  0  0  0
    3.2789   -0.4125    0.0000 C   0  0  0  0  0  0  0  0  0  0  0  0
    2.5645    0.0000    0.0000 C   0  0  0  0  0  0  0  0  0  0  0  0
    2.5645    0.8250    0.0000 C   0  0  0  0  0  0  0  0  0  0  0  0
    1.7798    1.0799    0.0000 C   0  0  0  0  0  0  0  0  0  0  0  0
    1.2949    0.4125    0.0000 N   0  0  0  0  0  0  0  0  0  0  0  0
    1.7798   -0.2549    0.0000 N   0  0  0  0  0  0  0  0  0  0  0  0
    1.5249   -1.0396    0.0000 C   0  0  0  0  0  0  0  0  0  0  0  0
    2.0769   -1.6527    0.0000 C   0  0  0  0  0  0  0  0  0  0  0  0
    1.8220   -2.4373    0.0000 C   0  0  0  0  0  0  0  0  0  0  0  0
    1.0150   -2.6088    0.0000 C   0  0  0  0  0  0  0  0  0  0  0  0
    0.4630   -1.9957    0.0000 C   0  0  0  0  0  0  0  0  0  0  0  0
    0.7179   -1.2111    0.0000 C   0  0  0  0  0  0  0  0  0  0  0  0
    0.1659   -0.5980    0.0000 C   0  0  0  0  0  0  0  0  0  0  0  0
    3.2789    3.7125    0.0000 N   0  0  0  0  0  0  0  0  0  0  0  0
    3.2789    4.5375    0.0000 C   0  0  0  0  0  0  0  0  0  0  0  0
  1  2  1  0  0  0  0
  2  3  4  0  0  0  0
  3  4  4  0  0  0  0
  4  5  4  0  0  0  0
  5  6  1  0  0  0  0
  6  7  2  0  0  0  0
  6  8  1  0  0  0  0
  8  9  1  0  0  0  0
  9 10  1  0  0  0  0
 10 11  1  0  0  0  0
 11 12  1  0  0  0  0
 12 13  1  0  0  0  0
 13 14  4  0  0  0  0
  9 14  1  0  0  0  0
 14 15  4  0  0  0  0
 15 16  4  0  0  0  0
 16 17  4  0  0  0  0
 13 17  4  0  0  0  0
 17 18  1  0  0  0  0
 18 19  4  0  0  0  0
 19 20  4  0  0  0  0
 20 21  4  0  0  0  0
 21 22  4  0  0  0  0
 22 23  4  0  0  0  0
 18 23  4  0  0  0  0
 23 24  1  0  0  0  0
  5 25  4  0  0  0  0
 25 26  4  0  0  0  0
  2 26  4  0  0  0  0
M  END
> <IC50(uM)>
0.066

> <Outcome>
1.0

> <BindingDB ID>
993092

> <BindingDB MonomerID>
477594

> <BindingDB Ligand Name>
5-methyl-N-[(4R)-1-(2-methylphenyl)-4,5,6,7-tetrahydro-1H-indazol-4-yl]pyridine-2-carboxamide::US10889564, Example 24

> <Curation/DataSource>
US Patent

> <Article DOI>
?

> <PMID>
?

> <Patent Number>
US10889564

> <Authors>
Lain, S; Drummond, C; Leeuwen, IV; Haraldsson, M; Johansson, L; Sandberg, L; Yngve, U

> <Link to Ligand in BindingDB>
http://www.bindingdb.org/bind/chemsearch/marvin/MolStructure.jsp?monomerid=477594

> <Link to Ligand-Target Pair in BindingDB>
http://www.bindingdb.org/jsp/dbsearch/PrimarySearch_ki.jsp?energyterm=kJ/mole&tag=r21&monomerid=477594&enzyme=Dihydroorotate+dehydrogenase&column=ki&startPg=0&Increment=50&submit=Search

> <PubChem CID>
129104694

> <PubChem SID>
442137211

$$$$

  Mrv2115 07222212352D          

 38 41  0  0  0  0            999 V2000
   -0.7145   -3.7125    0.0000 C   0  0  0  0  0  0  0  0  0  0  0  0
    0.0000   -4.1250    0.0000 C   0  0  0  0  0  0  0  0  0  0  0  0
    0.0000   -4.9500    0.0000 N   0  0  0  0  0  0  0  0  0  0  0  0
    0.6674   -5.4349    0.0000 C   0  0  0  0  0  0  0  0  0  0  0  0
    1.4521   -5.1800    0.0000 C   0  0  0  0  0  0  0  0  0  0  0  0
    1.6236   -4.3730    0.0000 C   0  0  0  0  0  0  0  0  0  0  0  0
    1.0105   -3.8210    0.0000 Cl  0  0  0  0  0  0  0  0  0  0  0  0
    2.4082   -4.1181    0.0000 C   0  0  0  0  0  0  0  0  0  0  0  0
    3.0213   -4.6701    0.0000 C   0  0  0  0  0  0  0  0  0  0  0  0
    2.8498   -5.4771    0.0000 C   0  0  0  0  0  0  0  0  0  0  0  0
    2.0652   -5.7320    0.0000 C   0  0  0  0  0  0  0  0  0  0  0  0
    1.8936   -6.5390    0.0000 Cl  0  0  0  0  0  0  0  0  0  0  0  0
    0.4125   -6.2195    0.0000 N   0  0  0  0  0  0  0  0  0  0  0  0
   -0.4125   -6.2195    0.0000 N   0  0  0  0  0  0  0  0  0  0  0  0
   -0.8974   -6.8870    0.0000 C   0  0  0  0  0  0  0  0  0  0  0  0
   -0.5619   -7.6407    0.0000 C   0  0  0  0  0  0  0  0  0  0  0  0
   -1.0468   -8.3081    0.0000 C   0  0  0  0  0  0  0  0  0  0  0  0
   -0.7112   -9.0618    0.0000 O   0  0  0  0  0  0  0  0  0  0  0  0
   -1.1962   -9.7292    0.0000 C   0  0  0  0  0  0  0  0  0  0  0  0
   -1.8673   -8.2219    0.0000 C   0  0  0  0  0  0  0  0  0  0  0  0
   -2.3522   -8.8893    0.0000 C   0  0  0  0  0  0  0  0  0  0  0  0
   -2.0166   -9.6430    0.0000 O   0  0  0  0  0  0  0  0  0  0  0  0
   -3.1727   -8.8031    0.0000 N   0  0  0  0  0  0  0  0  0  0  0  0
   -3.6576   -9.4705    0.0000 C   0  0  0  0  0  0  0  0  0  0  0  0
   -3.3220  -10.2242    0.0000 C   0  0  0  0  0  0  0  0  0  0  0  0
   -3.8070  -10.8916    0.0000 C   0  0  0  0  0  0  0  0  0  0  0  0
   -4.6274  -10.8054    0.0000 C   0  0  0  0  0  0  0  0  0  0  0  0
   -4.9630  -10.0517    0.0000 C   0  0  0  0  0  0  0  0  0  0  0  0
   -5.7835   -9.9655    0.0000 C   0  0  0  0  0  0  0  0  0  0  0  0
   -6.6040   -9.8792    0.0000 F   0  0  0  0  0  0  0  0  0  0  0  0
   -5.6972   -9.1450    0.0000 F   0  0  0  0  0  0  0  0  0  0  0  0
   -5.8697  -10.7860    0.0000 F   0  0  0  0  0  0  0  0  0  0  0  0
   -4.4781   -9.3843    0.0000 C   0  0  0  0  0  0  0  0  0  0  0  0
   -2.2028   -7.4682    0.0000 C   0  0  0  0  0  0  0  0  0  0  0  0
   -1.7179   -6.8007    0.0000 C   0  0  0  0  0  0  0  0  0  0  0  0
   -2.0535   -6.0471    0.0000 F   0  0  0  0  0  0  0  0  0  0  0  0
   -0.6674   -5.4349    0.0000 C   0  0  0  0  0  0  0  0  0  0  0  0
   -1.4521   -5.1800    0.0000 O   0  0  0  0  0  0  0  0  0  0  0  0
  1  2  1  0  0  0  0
  2  3  1  0  0  0  0
  3  4  4  0  0  0  0
  4  5  1  0  0  0  0
  5  6  4  0  0  0  0
  6  7  1  0  0  0  0
  6  8  4  0  0  0  0
  8  9  4  0  0  0  0
  9 10  4  0  0  0  0
 10 11  4  0  0  0  0
  5 11  4  0  0  0  0
 11 12  1  0  0  0  0
  4 13  4  0  0  0  0
 13 14  4  0  0  0  0
 14 15  1  0  0  0  0
 15 16  4  0  0  0  0
 16 17  4  0  0  0  0
 17 18  1  0  0  0  0
 18 19  1  0  0  0  0
 17 20  4  0  0  0  0
 20 21  1  0  0  0  0
 21 22  2  0  0  0  0
 21 23  1  0  0  0  0
 23 24  1  0  0  0  0
 24 25  4  0  0  0  0
 25 26  4  0  0  0  0
 26 27  4  0  0  0  0
 27 28  4  0  0  0  0
 28 29  1  0  0  0  0
 29 30  1  0  0  0  0
 29 31  1  0  0  0  0
 29 32  1  0  0  0  0
 28 33  4  0  0  0  0
 24 33  4  0  0  0  0
 20 34  4  0  0  0  0
 34 35  4  0  0  0  0
 15 35  4  0  0  0  0
 35 36  1  0  0  0  0
 14 37  4  0  0  0  0
  3 37  4  0  0  0  0
 37 38  2  0  0  0  0
M  END
> <IC50(uM)>
30.0

> <Outcome>
0.0

> <BindingDB ID>
1098852

> <BindingDB MonomerID>
520403

> <BindingDB Ligand Name>
4-[3-(2,6-dichlorophenyl)-4-ethyl-5-oxo-4,5-dihydro-1H-1,2,4-triazol-1-yl]-2-methoxy-N-[3-(tri-fluoromethyl)phenyl]benzamide::US11130745, Ref. Cpd. 1

> <Curation/DataSource>
US Patent

> <Article DOI>
?

> <PMID>
?

> <Patent Number>
US11130745

> <Authors>
Gradl, SN; Nguyen, D; Eis, K; Gunther, J; Stellfeld, T; Janzer, A; Christian, S; Muller, T; Sheikh, SE; Sykes, DB; Ferrara, SJ; Krober, M; Merz, C; Niehues, M; Schafer, M; Zimmermann, K; Nising, CF

> <Link to Ligand in BindingDB>
http://www.bindingdb.org/bind/chemsearch/marvin/MolStructure.jsp?monomerid=520403

> <Link to Ligand-Target Pair in BindingDB>
http://www.bindingdb.org/jsp/dbsearch/PrimarySearch_ki.jsp?energyterm=kJ/mole&tag=r21&monomerid=520403&enzyme=Dihydroorotate+dehydrogenase&column=ki&startPg=0&Increment=50&submit=Search

> <PubChem CID>
?

> <PubChem SID>
?

$$$$

  Mrv2115 07222212352D          

 29 31  0  0  0  0            999 V2000
    0.7145   -3.7125    0.0000 O   0  0  0  0  0  0  0  0  0  0  0  0
    1.4289   -4.1250    0.0000 C   0  0  0  0  0  0  0  0  0  0  0  0
    2.1434   -3.7125    0.0000 O   0  0  0  0  0  0  0  0  0  0  0  0
    1.4289   -4.9500    0.0000 C   0  0  0  0  0  0  0  0  0  0  0  0
    2.0964   -5.4349    0.0000 C   0  0  0  0  0  0  0  0  0  0  0  0
    2.8810   -5.1800    0.0000 C   0  0  0  0  0  0  0  0  0  0  0  0
    3.4941   -5.7320    0.0000 O   0  0  0  0  0  0  0  0  0  0  0  0
    3.0525   -4.3730    0.0000 N   0  0  0  0  0  0  0  0  0  0  0  0
    3.8372   -4.1181    0.0000 C   0  0  0  0  0  0  0  0  0  0  0  0
    4.0087   -3.3111    0.0000 C   0  0  0  0  0  0  0  0  0  0  0  0
    4.7933   -3.0562    0.0000 C   0  0  0  0  0  0  0  0  0  0  0  0
    5.4064   -3.6082    0.0000 C   0  0  0  0  0  0  0  0  0  0  0  0
    6.1910   -3.3533    0.0000 C   0  0  0  0  0  0  0  0  0  0  0  0
    6.3625   -2.5463    0.0000 C   0  0  0  0  0  0  0  0  0  0  0  0
    7.1472   -2.2913    0.0000 C   0  0  0  0  0  0  0  0  0  0  0  0
    7.7603   -2.8434    0.0000 C   0  0  0  0  0  0  0  0  0  0  0  0
    7.5887   -3.6503    0.0000 C   0  0  0  0  0  0  0  0  0  0  0  0
    8.2018   -4.2024    0.0000 O   0  0  0  0  0  0  0  0  0  0  0  0
    8.9864   -3.9474    0.0000 C   0  0  0  0  0  0  0  0  0  0  0  0
    9.7711   -3.6925    0.0000 F   0  0  0  0  0  0  0  0  0  0  0  0
    9.2414   -4.7321    0.0000 F   0  0  0  0  0  0  0  0  0  0  0  0
    8.7315   -3.1628    0.0000 F   0  0  0  0  0  0  0  0  0  0  0  0
    6.8041   -3.9053    0.0000 C   0  0  0  0  0  0  0  0  0  0  0  0
    5.2349   -4.4152    0.0000 C   0  0  0  0  0  0  0  0  0  0  0  0
    5.8480   -4.9672    0.0000 Cl  0  0  0  0  0  0  0  0  0  0  0  0
    4.4502   -4.6701    0.0000 C   0  0  0  0  0  0  0  0  0  0  0  0
    1.8414   -6.2195    0.0000 C   0  0  0  0  0  0  0  0  0  0  0  0
    1.0164   -6.2195    0.0000 C   0  0  0  0  0  0  0  0  0  0  0  0
    0.7615   -5.4349    0.0000 C   0  0  0  0  0  0  0  0  0  0  0  0
  1  2  2  0  0  0  0
  2  3  1  0  0  0  0
  2  4  1  0  0  0  0
  4  5  2  0  0  0  0
  5  6  1  0  0  0  0
  6  7  2  0  0  0  0
  6  8  1  0  0  0  0
  8  9  1  0  0  0  0
  9 10  4  0  0  0  0
 10 11  4  0  0  0  0
 11 12  4  0  0  0  0
 12 13  1  0  0  0  0
 13 14  4  0  0  0  0
 14 15  4  0  0  0  0
 15 16  4  0  0  0  0
 16 17  4  0  0  0  0
 17 18  1  0  0  0  0
 18 19  1  0  0  0  0
 19 20  1  0  0  0  0
 19 21  1  0  0  0  0
 19 22  1  0  0  0  0
 17 23  4  0  0  0  0
 13 23  4  0  0  0  0
 12 24  4  0  0  0  0
 24 25  1  0  0  0  0
 24 26  4  0  0  0  0
  9 26  4  0  0  0  0
  5 27  1  0  0  0  0
 27 28  1  0  0  0  0
 28 29  1  0  0  0  0
  4 29  1  0  0  0  0
M  END
> <IC50(uM)>
0.02

> <Outcome>
1.0

> <BindingDB ID>
50251729

> <BindingDB MonomerID>
50137311

> <BindingDB Ligand Name>
2-(2-Chloro-3'-trifluoromethoxy-biphenyl-4-ylcarbamoyl)-cyclopent-1-enecarboxylic acid::CHEMBL345464

> <Curation/DataSource>
ChEMBL

> <Article DOI>
10.1016/j.bmcl.2003.10.021

> <PMID>
14684297

> <Patent Number>
?

> <Authors>
Leban, J; Saeb, W; Garcia, G; Baumgartner, R; Kramer, B

> <Link to Ligand in BindingDB>
http://www.bindingdb.org/bind/chemsearch/marvin/MolStructure.jsp?monomerid=50137311

> <Link to Ligand-Target Pair in BindingDB>
http://www.bindingdb.org/jsp/dbsearch/PrimarySearch_ki.jsp?energyterm=kJ/mole&tag=r21&monomerid=50137311&enzyme=Dihydroorotate+dehydrogenase&column=ki&startPg=0&Increment=50&submit=Search

> <PubChem CID>
44369748

> <PubChem SID>
104027477

$$$$

  Mrv2115 07222212352D          

 25 27  0  0  0  0            999 V2000
    0.0000   -2.4750    0.0000 C   0  0  0  0  0  0  0  0  0  0  0  0
    0.0000   -1.6500    0.0000 O   0  0  0  0  0  0  0  0  0  0  0  0
    0.7145   -1.2375    0.0000 C   0  0  0  0  0  0  0  0  0  0  0  0
    0.7145   -0.4125    0.0000 C   0  0  0  0  0  0  0  0  0  0  0  0
    1.4289    0.0000    0.0000 C   0  0  0  0  0  0  0  0  0  0  0  0
    2.1434   -0.4125    0.0000 C   0  0  0  0  0  0  0  0  0  0  0  0
    2.8579    0.0000    0.0000 C   0  0  0  0  0  0  0  0  0  0  0  0
    3.5724   -0.4125    0.0000 C   0  0  0  0  0  0  0  0  0  0  0  0
    4.2868   -0.0000    0.0000 C   0  0  0  0  0  0  0  0  0  0  0  0
    4.2868    0.8250    0.0000 C   0  0  0  0  0  0  0  0  0  0  0  0
    5.0013    1.2375    0.0000 C   0  0  0  0  0  0  0  0  0  0  0  0
    5.0013    2.0625    0.0000 C   0  0  0  0  0  0  0  0  0  0  0  0
    4.2868    2.4750    0.0000 C   0  0  0  0  0  0  0  0  0  0  0  0
    4.2868    3.3000    0.0000 O   0  0  0  0  0  0  0  0  0  0  0  0
    3.5724    2.0625    0.0000 O   0  0  0  0  0  0  0  0  0  0  0  0
    5.7158    2.4750    0.0000 N   0  0  0  0  0  0  0  0  0  0  0  0
    6.4302    2.0625    0.0000 C   0  0  0  0  0  0  0  0  0  0  0  0
    7.1447    2.4750    0.0000 O   0  0  0  0  0  0  0  0  0  0  0  0
    6.4302    1.2375    0.0000 N   0  0  0  0  0  0  0  0  0  0  0  0
    5.7158    0.8250    0.0000 C   0  0  0  0  0  0  0  0  0  0  0  0
    5.7158   -0.0000    0.0000 O   0  0  0  0  0  0  0  0  0  0  0  0
    3.5724   -1.2375    0.0000 C   0  0  0  0  0  0  0  0  0  0  0  0
    2.8579   -1.6500    0.0000 C   0  0  0  0  0  0  0  0  0  0  0  0
    2.1434   -1.2375    0.0000 C   0  0  0  0  0  0  0  0  0  0  0  0
    1.4289   -1.6500    0.0000 C   0  0  0  0  0  0  0  0  0  0  0  0
  1  2  1  0  0  0  0
  2  3  1  0  0  0  0
  3  4  4  0  0  0  0
  4  5  4  0  0  0  0
  5  6  4  0  0  0  0
  6  7  4  0  0  0  0
  7  8  4  0  0  0  0
  8  9  1  0  0  0  0
  9 10  1  0  0  0  0
 10 11  1  0  0  0  0
 11 12  4  0  0  0  0
 12 13  1  0  0  0  0
 13 14  2  0  0  0  0
 13 15  1  0  0  0  0
 12 16  4  0  0  0  0
 16 17  4  0  0  0  0
 17 18  2  0  0  0  0
 17 19  4  0  0  0  0
 19 20  4  0  0  0  0
 11 20  4  0  0  0  0
 20 21  2  0  0  0  0
  8 22  4  0  0  0  0
 22 23  4  0  0  0  0
 23 24  4  0  0  0  0
  6 24  4  0  0  0  0
 24 25  4  0  0  0  0
  3 25  4  0  0  0  0
M  STY  2   1 DAT   2 DAT
M  SAL   1  1  16
M  SDT   1 MRV_IMPLICIT_H                                        
M  SDD   1     0.6482   -0.4125    DR    ALL  0       0  
M  SED   1 IMPL_H1
M  SAL   2  1  19
M  SDT   2 MRV_IMPLICIT_H                                        
M  SDD   2     0.5304   -0.4125    DR    ALL  0       0  
M  SED   2 IMPL_H1
M  END
> <IC50(uM)>
0.046

> <Outcome>
1.0

> <BindingDB ID>
50555414

> <BindingDB MonomerID>
50211715

> <BindingDB Ligand Name>
CHEMBL3925700

> <Curation/DataSource>
ChEMBL

> <Article DOI>
10.1016/j.bmc.2017.01.009

> <PMID>
28118956

> <Patent Number>
?

> <Authors>
Inaoka, DK; Iida, M; Hashimoto, S; Tabuchi, T; Kuranaga, T; Balogun, EO; Honma, T; Tanaka, A; Harada, S; Nara, T; Kita, K; Inoue, M

> <Link to Ligand in BindingDB>
http://www.bindingdb.org/bind/chemsearch/marvin/MolStructure.jsp?monomerid=50211715

> <Link to Ligand-Target Pair in BindingDB>
http://www.bindingdb.org/jsp/dbsearch/PrimarySearch_ki.jsp?energyterm=kJ/mole&tag=r21&monomerid=50211715&enzyme=Dihydroorotate+dehydrogenase&column=ki&startPg=0&Increment=50&submit=Search

> <PubChem CID>
134140885

> <PubChem SID>
375983058

$$$$

  Mrv2115 07222212352D          

 24 27  0  0  0  0            999 V2000
    5.1156   -3.2652    0.0000 C   0  0  0  0  0  0  0  0  0  0  0  0
    4.4011   -3.6777    0.0000 C   0  0  0  0  0  0  0  0  0  0  0  0
    4.4011   -4.5027    0.0000 C   0  0  0  0  0  0  0  0  0  0  0  0
    3.6866   -4.9152    0.0000 C   0  0  0  0  0  0  0  0  0  0  0  0
    3.6866   -5.7402    0.0000 N   0  0  0  0  0  0  0  0  0  0  0  0
    4.4011   -6.1527    0.0000 C   0  0  0  0  0  0  0  0  0  0  0  0
    5.1548   -5.8172    0.0000 C   0  0  0  0  0  0  0  0  0  0  0  0
    5.7068   -6.4303    0.0000 C   0  0  0  0  0  0  0  0  0  0  0  0
    6.5318   -6.4303    0.0000 C   0  0  0  0  0  0  0  0  0  0  0  0
    6.9443   -7.1447    0.0000 C   0  0  0  0  0  0  0  0  0  0  0  0
    6.5318   -7.8592    0.0000 C   0  0  0  0  0  0  0  0  0  0  0  0
    5.7068   -7.8592    0.0000 C   0  0  0  0  0  0  0  0  0  0  0  0
    5.2943   -7.1447    0.0000 C   0  0  0  0  0  0  0  0  0  0  0  0
    4.4874   -6.9732    0.0000 C   0  0  0  0  0  0  0  0  0  0  0  0
    2.9722   -4.5027    0.0000 N   0  0  0  0  0  0  0  0  0  0  0  0
    2.1876   -4.7577    0.0000 N   0  0  0  0  0  0  0  0  0  0  0  0
    1.7026   -4.0902    0.0000 C   0  0  0  0  0  0  0  0  0  0  0  0
    0.8776   -4.0902    0.0000 C   0  0  0  0  0  0  0  0  0  0  0  0
    0.0526   -4.0902    0.0000 C   0  0  0  0  0  0  0  0  0  0  0  0
    0.8776   -3.2652    0.0000 F   0  0  0  0  0  0  0  0  0  0  0  0
    0.8776   -4.9152    0.0000 F   0  0  0  0  0  0  0  0  0  0  0  0
    2.1876   -3.4228    0.0000 N   0  0  0  0  0  0  0  0  0  0  0  0
    2.9722   -3.6777    0.0000 C   0  0  0  0  0  0  0  0  0  0  0  0
    3.6866   -3.2652    0.0000 N   0  0  0  0  0  0  0  0  0  0  0  0
  1  2  1  0  0  0  0
  2  3  4  0  0  0  0
  3  4  4  0  0  0  0
  4  5  1  0  0  0  0
  5  6  1  0  0  0  0
  6  7  1  0  0  0  0
  7  8  1  0  0  0  0
  8  9  4  0  0  0  0
  9 10  4  0  0  0  0
 10 11  4  0  0  0  0
 11 12  4  0  0  0  0
 12 13  4  0  0  0  0
  8 13  4  0  0  0  0
 13 14  1  0  0  0  0
  6 14  1  0  0  0  0
  4 15  4  0  0  0  0
 15 16  4  0  0  0  0
 16 17  4  0  0  0  0
 17 18  1  0  0  0  0
 18 19  1  0  0  0  0
 18 20  1  0  0  0  0
 18 21  1  0  0  0  0
 17 22  4  0  0  0  0
 22 23  4  0  0  0  0
 15 23  4  0  0  0  0
 23 24  4  0  0  0  0
  2 24  4  0  0  0  0
M  END
> <IC50(uM)>
100.0

> <Outcome>
0.0

> <BindingDB ID>
51373009

> <BindingDB MonomerID>
50555376

> <BindingDB Ligand Name>
CHEMBL4784152

> <Curation/DataSource>
ChEMBL

> <Article DOI>
?

> <PMID>
27127993

> <Patent Number>
?

> <Authors>
Kokkonda, S; Deng, X; White, KL; Coteron, JM; Marco, M; de Las Heras, L; White, J; El Mazouni, F; Tomchick, DR; Manjalanagara, K; Rudra, KR; Chen, G; Morizzi, J; Ryan, E; Kaminsky, W; Leroy, D; Mart??nez-Mart??nez, MS; Jimenez-Diaz, MB; Bazaga, SF; Angulo-Barturen, I; Waterson, D; Burrows, JN; Matthews, D; Charman, SA; Phillips, MA; Rathod, PK

> <Link to Ligand in BindingDB>
http://www.bindingdb.org/bind/chemsearch/marvin/MolStructure.jsp?monomerid=50555376

> <Link to Ligand-Target Pair in BindingDB>
http://www.bindingdb.org/jsp/dbsearch/PrimarySearch_ki.jsp?energyterm=kJ/mole&tag=r21&monomerid=50555376&enzyme=Dihydroorotate+dehydrogenase&column=ki&startPg=0&Increment=50&submit=Search

> <PubChem CID>
162666557

> <PubChem SID>
461694144

$$$$

  Mrv2115 07222212352D          

 21 24  0  0  0  0            999 V2000
    5.1156   -3.2652    0.0000 C   0  0  0  0  0  0  0  0  0  0  0  0
    4.4011   -3.6777    0.0000 C   0  0  0  0  0  0  0  0  0  0  0  0
    4.4011   -4.5027    0.0000 C   0  0  0  0  0  0  0  0  0  0  0  0
    3.6866   -4.9152    0.0000 C   0  0  0  0  0  0  0  0  0  0  0  0
    3.6866   -5.7402    0.0000 N   0  0  0  0  0  0  0  0  0  0  0  0
    4.4011   -6.1527    0.0000 C   0  0  0  0  0  0  0  0  0  0  0  0
    5.1548   -5.8172    0.0000 C   0  0  0  0  0  0  0  0  0  0  0  0
    5.7068   -6.4303    0.0000 C   0  0  0  0  0  0  0  0  0  0  0  0
    6.5318   -6.4303    0.0000 C   0  0  0  0  0  0  0  0  0  0  0  0
    6.9443   -7.1447    0.0000 C   0  0  0  0  0  0  0  0  0  0  0  0
    6.5318   -7.8592    0.0000 C   0  0  0  0  0  0  0  0  0  0  0  0
    6.9443   -8.5737    0.0000 Br  0  0  0  0  0  0  0  0  0  0  0  0
    5.7068   -7.8592    0.0000 C   0  0  0  0  0  0  0  0  0  0  0  0
    5.2943   -7.1447    0.0000 C   0  0  0  0  0  0  0  0  0  0  0  0
    4.4874   -6.9732    0.0000 C   0  0  0  0  0  0  0  0  0  0  0  0
    2.9722   -4.5027    0.0000 N   0  0  0  0  0  0  0  0  0  0  0  0
    2.1876   -4.7577    0.0000 N   0  0  0  0  0  0  0  0  0  0  0  0
    1.7026   -4.0902    0.0000 C   0  0  0  0  0  0  0  0  0  0  0  0
    2.1876   -3.4228    0.0000 N   0  0  0  0  0  0  0  0  0  0  0  0
    2.9722   -3.6777    0.0000 C   0  0  0  0  0  0  0  0  0  0  0  0
    3.6866   -3.2652    0.0000 N   0  0  0  0  0  0  0  0  0  0  0  0
  1  2  1  0  0  0  0
  2  3  4  0  0  0  0
  3  4  4  0  0  0  0
  4  5  1  0  0  0  0
  5  6  1  0  0  0  0
  6  7  1  0  0  0  0
  7  8  1  0  0  0  0
  8  9  4  0  0  0  0
  9 10  4  0  0  0  0
 10 11  4  0  0  0  0
 11 12  1  0  0  0  0
 11 13  4  0  0  0  0
 13 14  4  0  0  0  0
  8 14  4  0  0  0  0
 14 15  1  0  0  0  0
  6 15  1  0  0  0  0
  4 16  4  0  0  0  0
 16 17  4  0  0  0  0
 17 18  4  0  0  0  0
 18 19  4  0  0  0  0
 19 20  4  0  0  0  0
 16 20  4  0  0  0  0
 20 21  4  0  0  0  0
  2 21  4  0  0  0  0
M  END
> <IC50(uM)>
50.0

> <Outcome>
0.0

> <BindingDB ID>
50643192

> <BindingDB MonomerID>
50345392

> <BindingDB Ligand Name>
CHEMBL1784591::N-(5-Bromo-2,3-dihydro-1H-inden-2-yl)-5-methyl-[1,2,4]triazolo-[1,5-a]pyrimidin-7-amine::US9238653, Table 5, Compound 28

> <Curation/DataSource>
ChEMBL

> <Article DOI>
10.1021/jm200265b

> <PMID>
21517059

> <Patent Number>
?

> <Authors>
Gujjar, R; El Mazouni, F; White, KL; White, J; Creason, S; Shackleford, DM; Deng, X; Charman, WN; Bathurst, I; Burrows, J; Floyd, DM; Matthews, D; Buckner, FS; Charman, SA; Phillips, MA; Rathod, PK

> <Link to Ligand in BindingDB>
http://www.bindingdb.org/bind/chemsearch/marvin/MolStructure.jsp?monomerid=50345392

> <Link to Ligand-Target Pair in BindingDB>
http://www.bindingdb.org/jsp/dbsearch/PrimarySearch_ki.jsp?energyterm=kJ/mole&tag=r21&monomerid=50345392&enzyme=Dihydroorotate+dehydrogenase&column=ki&startPg=0&Increment=50&submit=Search

> <PubChem CID>
51347391

> <PubChem SID>
131348328

$$$$

  Mrv2115 07222212352D          

 28 31  0  0  0  0            999 V2000
    1.8414   -3.0618    0.0000 O   0  0  0  0  0  0  0  0  0  0  0  0
    2.5559   -2.6493    0.0000 C   0  0  0  0  0  0  0  0  0  0  0  0
    2.5559   -1.8243    0.0000 O   0  0  0  0  0  0  0  0  0  0  0  0
    3.2704   -3.0618    0.0000 C   0  0  0  0  0  0  0  0  0  0  0  0
    3.2704   -3.8868    0.0000 C   0  0  0  0  0  0  0  0  0  0  0  0
    3.9849   -4.2993    0.0000 C   0  0  0  0  0  0  0  0  0  0  0  0
    3.9849   -5.1243    0.0000 C   0  0  0  0  0  0  0  0  0  0  0  0
    4.3974   -5.8388    0.0000 C   0  0  0  0  0  0  0  0  0  0  0  0
    3.5724   -5.8388    0.0000 C   0  0  0  0  0  0  0  0  0  0  0  0
    4.6993   -3.8868    0.0000 C   0  0  0  0  0  0  0  0  0  0  0  0
    4.6993   -3.0618    0.0000 N   0  0  0  0  0  0  0  0  0  0  0  0
    3.9849   -2.6493    0.0000 C   0  0  0  0  0  0  0  0  0  0  0  0
    3.9849   -1.8243    0.0000 N   0  0  0  0  0  0  0  0  0  0  0  0
    4.6993   -1.4118    0.0000 C   0  0  0  0  0  0  0  0  0  0  0  0
    4.6993   -0.5868    0.0000 C   0  0  0  0  0  0  0  0  0  0  0  0
    3.9849   -0.1743    0.0000 F   0  0  0  0  0  0  0  0  0  0  0  0
    5.4138   -0.1743    0.0000 C   0  0  0  0  0  0  0  0  0  0  0  0
    6.1283   -0.5868    0.0000 C   0  0  0  0  0  0  0  0  0  0  0  0
    6.8427   -0.1743    0.0000 C   0  0  0  0  0  0  0  0  0  0  0  0
    6.8427    0.6507    0.0000 C   0  0  0  0  0  0  0  0  0  0  0  0
    7.5572    1.0632    0.0000 C   0  0  0  0  0  0  0  0  0  0  0  0
    8.2717    0.6507    0.0000 C   0  0  0  0  0  0  0  0  0  0  0  0
    8.2717   -0.1743    0.0000 C   0  0  0  0  0  0  0  0  0  0  0  0
    7.5572   -0.5868    0.0000 C   0  0  0  0  0  0  0  0  0  0  0  0
    7.5572   -1.4118    0.0000 Cl  0  0  0  0  0  0  0  0  0  0  0  0
    6.1283   -1.4118    0.0000 C   0  0  0  0  0  0  0  0  0  0  0  0
    5.4138   -1.8243    0.0000 C   0  0  0  0  0  0  0  0  0  0  0  0
    5.4138   -2.6493    0.0000 F   0  0  0  0  0  0  0  0  0  0  0  0
  1  2  2  0  0  0  0
  2  3  1  0  0  0  0
  2  4  1  0  0  0  0
  4  5  4  0  0  0  0
  5  6  4  0  0  0  0
  6  7  1  0  0  0  0
  7  8  1  0  0  0  0
  8  9  1  0  0  0  0
  7  9  1  0  0  0  0
  6 10  4  0  0  0  0
 10 11  4  0  0  0  0
 11 12  4  0  0  0  0
  4 12  4  0  0  0  0
 12 13  1  0  0  0  0
 13 14  1  0  0  0  0
 14 15  4  0  0  0  0
 15 16  1  0  0  0  0
 15 17  4  0  0  0  0
 17 18  4  0  0  0  0
 18 19  1  0  0  0  0
 19 20  4  0  0  0  0
 20 21  4  0  0  0  0
 21 22  4  0  0  0  0
 22 23  4  0  0  0  0
 23 24  4  0  0  0  0
 19 24  4  0  0  0  0
 24 25  1  0  0  0  0
 18 26  4  0  0  0  0
 26 27  4  0  0  0  0
 14 27  4  0  0  0  0
 27 28  1  0  0  0  0
M  END
> <IC50(uM)>
0.004999999999999999

> <Outcome>
1.0

> <BindingDB ID>
246920; 51186835

> <BindingDB MonomerID>
119827

> <BindingDB Ligand Name>
US8691852, 54

> <Curation/DataSource>
US Patent; ChEMBL

> <Article DOI>
?; 10.1007/s00044-011-9837-4

> <PMID>
?

> <Patent Number>
US8691852; ?

> <Authors>
Castro Palomino Laria, JC; Erra Sola, M; Lozoya Toribio, ME; Navarro Romero, E; n/a

> <Link to Ligand in BindingDB>
http://www.bindingdb.org/bind/chemsearch/marvin/MolStructure.jsp?monomerid=119827

> <Link to Ligand-Target Pair in BindingDB>
http://www.bindingdb.org/jsp/dbsearch/PrimarySearch_ki.jsp?energyterm=kJ/mole&tag=r21&monomerid=119827&enzyme=Dihydroorotate+dehydrogenase&column=ki&startPg=0&Increment=50&submit=Search

> <PubChem CID>
24989389

> <PubChem SID>
220230621

$$$$

  Mrv2115 07222212352D          

 36 39  0  0  0  0            999 V2000
   -3.1034    2.1599    0.0000 C   0  0  0  0  0  0  0  0  0  0  0  0
   -2.6909    1.4455    0.0000 C   0  0  0  0  0  0  0  0  0  0  0  0
   -3.1034    0.7310    0.0000 O   0  0  0  0  0  0  0  0  0  0  0  0
   -2.6909    0.0165    0.0000 C   0  0  0  0  0  0  0  0  0  0  0  0
   -1.8659    0.0165    0.0000 C   0  0  0  0  0  0  0  0  0  0  0  0
   -1.4534   -0.6979    0.0000 C   0  0  0  0  0  0  0  0  0  0  0  0
   -0.6284   -0.6979    0.0000 N   0  0  0  0  0  0  0  0  0  0  0  0
   -0.1435   -1.3654    0.0000 N   0  0  0  0  0  0  0  0  0  0  0  0
    0.6411   -1.1104    0.0000 C   0  0  0  0  0  0  0  0  0  0  0  0
    0.6411   -0.2854    0.0000 N   0  0  0  0  0  0  0  0  0  0  0  0
   -0.1435   -0.0305    0.0000 C   0  0  0  0  0  0  0  0  0  0  0  0
   -0.3984    0.7541    0.0000 O   0  0  0  0  0  0  0  0  0  0  0  0
    1.3556    0.1271    0.0000 C   0  0  0  0  0  0  0  0  0  0  0  0
    2.0701   -0.2854    0.0000 C   0  0  0  0  0  0  0  0  0  0  0  0
    2.7845    0.1271    0.0000 O   0  0  0  0  0  0  0  0  0  0  0  0
    2.0701   -1.1104    0.0000 C   0  0  0  0  0  0  0  0  0  0  0  0
    1.3556   -1.5229    0.0000 C   0  0  0  0  0  0  0  0  0  0  0  0
   -1.8659   -1.4124    0.0000 C   0  0  0  0  0  0  0  0  0  0  0  0
   -1.4534   -2.1269    0.0000 F   0  0  0  0  0  0  0  0  0  0  0  0
   -2.6909   -1.4124    0.0000 C   0  0  0  0  0  0  0  0  0  0  0  0
   -3.1034   -0.6979    0.0000 C   0  0  0  0  0  0  0  0  0  0  0  0
   -3.9284   -0.6979    0.0000 C   0  0  0  0  0  0  0  0  0  0  0  0
   -4.3409    0.0165    0.0000 O   0  0  0  0  0  0  0  0  0  0  0  0
   -4.3409   -1.4124    0.0000 N   0  0  0  0  0  0  0  0  0  0  0  0
   -5.1659   -1.4124    0.0000 C   0  0  0  0  0  0  0  0  0  0  0  0
   -5.5784   -2.1269    0.0000 C   0  0  0  0  0  0  0  0  0  0  0  0
   -5.1659   -2.8414    0.0000 F   0  0  0  0  0  0  0  0  0  0  0  0
   -6.4034   -2.1269    0.0000 C   0  0  0  0  0  0  0  0  0  0  0  0
   -6.8159   -1.4124    0.0000 C   0  0  0  0  0  0  0  0  0  0  0  0
   -6.4034   -0.6979    0.0000 C   0  0  0  0  0  0  0  0  0  0  0  0
   -5.5784   -0.6979    0.0000 C   0  0  0  0  0  0  0  0  0  0  0  0
   -5.1659    0.0165    0.0000 F   0  0  0  0  0  0  0  0  0  0  0  0
   -1.8659    1.4455    0.0000 C   0  0  0  0  0  0  0  0  0  0  0  0
   -1.8659    0.6205    0.0000 F   0  0  0  0  0  0  0  0  0  0  0  0
   -1.8659    2.2705    0.0000 F   0  0  0  0  0  0  0  0  0  0  0  0
   -1.0409    1.4455    0.0000 F   0  0  0  0  0  0  0  0  0  0  0  0
  1  2  1  0  0  0  0
  2  3  1  0  0  0  0
  3  4  1  0  0  0  0
  4  5  4  0  0  0  0
  5  6  4  0  0  0  0
  6  7  1  0  0  0  0
  7  8  4  0  0  0  0
  8  9  4  0  0  0  0
  9 10  4  0  0  0  0
 10 11  4  0  0  0  0
  7 11  4  0  0  0  0
 11 12  2  0  0  0  0
 10 13  1  0  0  0  0
 13 14  1  0  0  0  0
 14 15  1  0  0  0  0
 14 16  1  0  0  0  0
 16 17  1  0  0  0  0
  9 17  1  0  0  0  0
  6 18  4  0  0  0  0
 18 19  1  0  0  0  0
 18 20  4  0  0  0  0
 20 21  4  0  0  0  0
  4 21  4  0  0  0  0
 21 22  1  0  0  0  0
 22 23  2  0  0  0  0
 22 24  1  0  0  0  0
 24 25  1  0  0  0  0
 25 26  4  0  0  0  0
 26 27  1  0  0  0  0
 26 28  4  0  0  0  0
 28 29  4  0  0  0  0
 29 30  4  0  0  0  0
 30 31  4  0  0  0  0
 25 31  4  0  0  0  0
 31 32  1  0  0  0  0
  2 33  1  0  0  0  0
 33 34  1  0  0  0  0
 33 35  1  0  0  0  0
 33 36  1  0  0  0  0
M  END
> <IC50(uM)>
100.0

> <Outcome>
0.0

> <BindingDB ID>
1020700

> <BindingDB MonomerID>
490626

> <BindingDB Ligand Name>
N-(2,6-difluorophenyl)-5-fluoro-4-(6-hydroxy-3-oxo-5,6,7,8-tetrahydro[1,2,4]triazolo[4,3-a]-pyridin-2(3H)-yl)-2-{[(2S)-1,1,1-trifluoropropan-2-yl]oxy}benzamide::US10968216, Example 294

> <Curation/DataSource>
US Patent

> <Article DOI>
?

> <PMID>
?

> <Patent Number>
US10968216

> <Authors>
Gradl, SN; Nguyen, D; Eis, K; Gunther, J; Stellfeld, T; Janzer, A; Christian, S; Mueller, T; Sheikh, SE; Zhou, HJ; Zhao, C; Sykes, DB; Ferrara, SJ; Liu, K; Herbert, SA; Merz, C; Niehues, M; Nising, CF; Schafer, M; Zimmermann, K; Knablein, J; Thede, K; Faupel, T

> <Link to Ligand in BindingDB>
http://www.bindingdb.org/bind/chemsearch/marvin/MolStructure.jsp?monomerid=490626

> <Link to Ligand-Target Pair in BindingDB>
http://www.bindingdb.org/jsp/dbsearch/PrimarySearch_ki.jsp?energyterm=kJ/mole&tag=r21&monomerid=490626&enzyme=Dihydroorotate+dehydrogenase&column=ki&startPg=0&Increment=50&submit=Search

> <PubChem CID>
134473869

> <PubChem SID>
447117352

$$$$

  Mrv2115 07222212352D          

 33 35  0  0  0  0            999 V2000
    2.1434   -3.7125    0.0000 C   0  0  0  0  0  0  0  0  0  0  0  0
    2.8579   -4.1250    0.0000 C   0  0  0  0  0  0  0  0  0  0  0  0
    2.8579   -4.9500    0.0000 C   0  0  0  0  0  0  0  0  0  0  0  0
    3.5724   -3.7125    0.0000 C   0  0  0  0  0  0  0  0  0  0  0  0
    4.2868   -4.1250    0.0000 C   0  0  0  0  0  0  0  0  0  0  0  0
    4.2868   -4.9500    0.0000 C   0  0  0  0  0  0  0  0  0  0  0  0
    5.0013   -3.7125    0.0000 O   0  0  0  0  0  0  0  0  0  0  0  0
    5.0013   -2.8875    0.0000 C   0  0  0  0  0  0  0  0  0  0  0  0
    4.2868   -2.4750    0.0000 C   0  0  0  0  0  0  0  0  0  0  0  0
    4.2868   -1.6500    0.0000 C   0  0  0  0  0  0  0  0  0  0  0  0
    3.5724   -1.2375    0.0000 N   0  0  0  0  0  0  0  0  0  0  0  0
    2.8187   -1.5731    0.0000 N   0  0  0  0  0  0  0  0  0  0  0  0
    2.2666   -0.9600    0.0000 C   0  0  0  0  0  0  0  0  0  0  0  0
    1.4462   -1.0462    0.0000 C   0  0  0  0  0  0  0  0  0  0  0  0
    0.9612   -0.3788    0.0000 C   0  0  0  0  0  0  0  0  0  0  0  0
    1.1106   -1.7999    0.0000 C   0  0  0  0  0  0  0  0  0  0  0  0
    2.6791   -0.2455    0.0000 N   0  0  0  0  0  0  0  0  0  0  0  0
    2.3436    0.5082    0.0000 C   0  0  0  0  0  0  0  0  0  0  0  0
    3.4861   -0.4170    0.0000 C   0  0  0  0  0  0  0  0  0  0  0  0
    4.0992    0.1350    0.0000 O   0  0  0  0  0  0  0  0  0  0  0  0
    5.0013   -1.2375    0.0000 C   0  0  0  0  0  0  0  0  0  0  0  0
    5.0013   -0.4125    0.0000 F   0  0  0  0  0  0  0  0  0  0  0  0
    5.7158   -1.6500    0.0000 C   0  0  0  0  0  0  0  0  0  0  0  0
    5.7158   -2.4750    0.0000 C   0  0  0  0  0  0  0  0  0  0  0  0
    6.4302   -2.8875    0.0000 C   0  0  0  0  0  0  0  0  0  0  0  0
    6.4302   -3.7125    0.0000 O   0  0  0  0  0  0  0  0  0  0  0  0
    7.1447   -2.4750    0.0000 N   0  0  0  0  0  0  0  0  0  0  0  0
    7.8592   -2.8875    0.0000 C   0  0  0  0  0  0  0  0  0  0  0  0
    8.5737   -2.4750    0.0000 N   0  0  0  0  0  0  0  0  0  0  0  0
    9.2881   -2.8875    0.0000 C   0  0  0  0  0  0  0  0  0  0  0  0
    9.2881   -3.7125    0.0000 C   0  0  0  0  0  0  0  0  0  0  0  0
    8.5737   -4.1250    0.0000 C   0  0  0  0  0  0  0  0  0  0  0  0
    7.8592   -3.7125    0.0000 N   0  0  0  0  0  0  0  0  0  0  0  0
  1  2  1  0  0  0  0
  2  3  1  0  0  0  0
  2  4  1  0  0  0  0
  4  5  1  0  0  0  0
  5  6  1  0  0  0  0
  5  7  1  0  0  0  0
  7  8  1  0  0  0  0
  8  9  4  0  0  0  0
  9 10  4  0  0  0  0
 10 11  1  0  0  0  0
 11 12  4  0  0  0  0
 12 13  4  0  0  0  0
 13 14  1  0  0  0  0
 14 15  1  0  0  0  0
 14 16  1  0  0  0  0
 13 17  4  0  0  0  0
 17 18  1  0  0  0  0
 17 19  4  0  0  0  0
 11 19  4  0  0  0  0
 19 20  2  0  0  0  0
 10 21  4  0  0  0  0
 21 22  1  0  0  0  0
 21 23  4  0  0  0  0
 23 24  4  0  0  0  0
  8 24  4  0  0  0  0
 24 25  1  0  0  0  0
 25 26  2  0  0  0  0
 25 27  1  0  0  0  0
 27 28  1  0  0  0  0
 28 29  4  0  0  0  0
 29 30  4  0  0  0  0
 30 31  4  0  0  0  0
 31 32  4  0  0  0  0
 32 33  4  0  0  0  0
 28 33  4  0  0  0  0
M  END
> <IC50(uM)>
13.5

> <Outcome>
0.0

> <BindingDB ID>
972620; 1098774; 1098775; 972621

> <BindingDB MonomerID>
470505

> <BindingDB Ligand Name>
5-fluoro-4-[4-methyl-5-oxo-3-(propan-2-yl)-4,5-dihydro-1H-1,2,4-triazol-1-yl]-2-{[(2S)-4-methyl-pentan-2-yl]oxy}-N-(pyrimidin-2-yl)benzamide::US10815215, Example 161; 5-fluoro-4-[4-methyl-5-oxo-3-(propan-2-yl)-4,5-dihydro-1H-1,2,4-triazol-1-yl]-2-{[(2S)-4-methyl-pentan-2-yl]oxy}-N-(pyrimidin-2-yl)benzamide::US10815215, Example 161::US11130745, Example 161

> <Curation/DataSource>
US Patent

> <Article DOI>
?

> <PMID>
?

> <Patent Number>
US10815215; US11130745

> <Authors>
Gradl, SN; Nguyen, D; Eis, K; Gunther, J; Stellfeld, T; Janzer, A; Christian, S; Muller, T; Sheikh, SE; Zhou, HJ; Zhao, C; Sykes, DB; Ferrara, SJ; Liu, K; Krober, M; Merz, C; Niehues, M; Schafer, M; Zimmermann, K; Nising, CF; Gradl, SN; Nguyen, D; Eis, K; Gunther, J; Stellfeld, T; Janzer, A; Christian, S; Muller, T; Sheikh, SE; Sykes, DB; Ferrara, SJ; Krober, M; Merz, C; Niehues, M; Schafer, M; Zimmermann, K; Nising, CF

> <Link to Ligand in BindingDB>
http://www.bindingdb.org/bind/chemsearch/marvin/MolStructure.jsp?monomerid=470505

> <Link to Ligand-Target Pair in BindingDB>
http://www.bindingdb.org/jsp/dbsearch/PrimarySearch_ki.jsp?energyterm=kJ/mole&tag=r21&monomerid=470505&enzyme=Dihydroorotate+dehydrogenase&column=ki&startPg=0&Increment=50&submit=Search

> <PubChem CID>
134470069

> <PubChem SID>
441609682

$$$$

  Mrv2115 07222212352D          

 21 22  0  0  0  0            999 V2000
    0.0000   -1.6500    0.0000 C   0  0  0  0  0  0  0  0  0  0  0  0
    0.0000   -2.4750    0.0000 C   0  0  0  0  0  0  0  0  0  0  0  0
    0.7145   -2.8875    0.0000 C   0  0  0  0  0  0  0  0  0  0  0  0
    0.7145   -3.7125    0.0000 C   0  0  0  0  0  0  0  0  0  0  0  0
    1.4289   -4.1250    0.0000 C   0  0  0  0  0  0  0  0  0  0  0  0
    1.4289   -4.9500    0.0000 C   0  0  0  0  0  0  0  0  0  0  0  0
    2.1434   -5.3625    0.0000 C   0  0  0  0  0  0  0  0  0  0  0  0
    2.8579   -4.9500    0.0000 C   0  0  0  0  0  0  0  0  0  0  0  0
    2.8579   -4.1250    0.0000 C   0  0  0  0  0  0  0  0  0  0  0  0
    3.5724   -3.7125    0.0000 O   0  0  0  0  0  0  0  0  0  0  0  0
    2.1434   -3.7125    0.0000 O   0  0  0  0  0  0  0  0  0  0  0  0
    3.5724   -5.3625    0.0000 N   0  0  0  0  0  0  0  0  0  0  0  0
    3.5724   -6.1875    0.0000 C   0  0  0  0  0  0  0  0  0  0  0  0
    4.2868   -6.6000    0.0000 O   0  0  0  0  0  0  0  0  0  0  0  0
    2.8579   -6.6000    0.0000 N   0  0  0  0  0  0  0  0  0  0  0  0
    2.1434   -6.1875    0.0000 C   0  0  0  0  0  0  0  0  0  0  0  0
    1.4289   -6.6000    0.0000 O   0  0  0  0  0  0  0  0  0  0  0  0
    0.0000   -4.1250    0.0000 C   0  0  0  0  0  0  0  0  0  0  0  0
   -0.7145   -3.7125    0.0000 C   0  0  0  0  0  0  0  0  0  0  0  0
   -0.7145   -2.8875    0.0000 C   0  0  0  0  0  0  0  0  0  0  0  0
   -1.4289   -2.4750    0.0000 F   0  0  0  0  0  0  0  0  0  0  0  0
  1  2  1  0  0  0  0
  2  3  4  0  0  0  0
  3  4  4  0  0  0  0
  4  5  1  0  0  0  0
  5  6  1  0  0  0  0
  6  7  1  0  0  0  0
  7  8  4  0  0  0  0
  8  9  1  0  0  0  0
  9 10  2  0  0  0  0
  9 11  1  0  0  0  0
  8 12  4  0  0  0  0
 12 13  4  0  0  0  0
 13 14  2  0  0  0  0
 13 15  4  0  0  0  0
 15 16  4  0  0  0  0
  7 16  4  0  0  0  0
 16 17  2  0  0  0  0
  4 18  4  0  0  0  0
 18 19  4  0  0  0  0
 19 20  4  0  0  0  0
  2 20  4  0  0  0  0
 20 21  1  0  0  0  0
M  STY  2   1 DAT   2 DAT
M  SAL   1  1  12
M  SDT   1 MRV_IMPLICIT_H                                        
M  SDD   1     0.5304   -0.4125    DR    ALL  0       0  
M  SED   1 IMPL_H1
M  SAL   2  1  15
M  SDT   2 MRV_IMPLICIT_H                                        
M  SDD   2     0.6482   -0.4125    DR    ALL  0       0  
M  SED   2 IMPL_H1
M  END
> <IC50(uM)>
0.293

> <Outcome>
1.0

> <BindingDB ID>
50555392

> <BindingDB MonomerID>
50211732

> <BindingDB Ligand Name>
CHEMBL3908056

> <Curation/DataSource>
ChEMBL

> <Article DOI>
10.1016/j.bmc.2017.01.009

> <PMID>
28118956

> <Patent Number>
?

> <Authors>
Inaoka, DK; Iida, M; Hashimoto, S; Tabuchi, T; Kuranaga, T; Balogun, EO; Honma, T; Tanaka, A; Harada, S; Nara, T; Kita, K; Inoue, M

> <Link to Ligand in BindingDB>
http://www.bindingdb.org/bind/chemsearch/marvin/MolStructure.jsp?monomerid=50211732

> <Link to Ligand-Target Pair in BindingDB>
http://www.bindingdb.org/jsp/dbsearch/PrimarySearch_ki.jsp?energyterm=kJ/mole&tag=r21&monomerid=50211732&enzyme=Dihydroorotate+dehydrogenase&column=ki&startPg=0&Increment=50&submit=Search

> <PubChem CID>
134132411

> <PubChem SID>
375983069

$$$$

  Mrv2115 07222212352D          

 37 40  0  0  0  0            999 V2000
   -0.7145   -3.7125    0.0000 C   0  0  0  0  0  0  0  0  0  0  0  0
    0.0000   -4.1250    0.0000 C   0  0  0  0  0  0  0  0  0  0  0  0
    0.0000   -4.9500    0.0000 N   0  0  0  0  0  0  0  0  0  0  0  0
    0.6674   -5.4349    0.0000 C   0  0  0  0  0  0  0  0  0  0  0  0
    1.4521   -5.1800    0.0000 C   0  0  0  0  0  0  0  0  0  0  0  0
    1.6236   -4.3730    0.0000 C   0  0  0  0  0  0  0  0  0  0  0  0
    1.0105   -3.8210    0.0000 Cl  0  0  0  0  0  0  0  0  0  0  0  0
    2.4082   -4.1181    0.0000 C   0  0  0  0  0  0  0  0  0  0  0  0
    3.0213   -4.6701    0.0000 C   0  0  0  0  0  0  0  0  0  0  0  0
    2.8498   -5.4771    0.0000 C   0  0  0  0  0  0  0  0  0  0  0  0
    2.0652   -5.7320    0.0000 C   0  0  0  0  0  0  0  0  0  0  0  0
    1.8936   -6.5390    0.0000 Cl  0  0  0  0  0  0  0  0  0  0  0  0
    0.4125   -6.2195    0.0000 N   0  0  0  0  0  0  0  0  0  0  0  0
   -0.4125   -6.2195    0.0000 N   0  0  0  0  0  0  0  0  0  0  0  0
   -0.8974   -6.8870    0.0000 C   0  0  0  0  0  0  0  0  0  0  0  0
   -0.5619   -7.6407    0.0000 C   0  0  0  0  0  0  0  0  0  0  0  0
   -1.0468   -8.3081    0.0000 C   0  0  0  0  0  0  0  0  0  0  0  0
   -1.8673   -8.2219    0.0000 C   0  0  0  0  0  0  0  0  0  0  0  0
   -2.3522   -8.8893    0.0000 C   0  0  0  0  0  0  0  0  0  0  0  0
   -2.0166   -9.6430    0.0000 O   0  0  0  0  0  0  0  0  0  0  0  0
   -3.1727   -8.8031    0.0000 N   0  0  0  0  0  0  0  0  0  0  0  0
   -3.6576   -9.4705    0.0000 C   0  0  0  0  0  0  0  0  0  0  0  0
   -3.3220  -10.2242    0.0000 C   0  0  0  0  0  0  0  0  0  0  0  0
   -3.8070  -10.8916    0.0000 C   0  0  0  0  0  0  0  0  0  0  0  0
   -4.6274  -10.8054    0.0000 C   0  0  0  0  0  0  0  0  0  0  0  0
   -4.9630  -10.0517    0.0000 C   0  0  0  0  0  0  0  0  0  0  0  0
   -5.7835   -9.9655    0.0000 C   0  0  0  0  0  0  0  0  0  0  0  0
   -6.6040   -9.8792    0.0000 F   0  0  0  0  0  0  0  0  0  0  0  0
   -5.6972   -9.1450    0.0000 F   0  0  0  0  0  0  0  0  0  0  0  0
   -5.8697  -10.7860    0.0000 F   0  0  0  0  0  0  0  0  0  0  0  0
   -4.4781   -9.3843    0.0000 C   0  0  0  0  0  0  0  0  0  0  0  0
   -2.2028   -7.4682    0.0000 C   0  0  0  0  0  0  0  0  0  0  0  0
   -3.0233   -7.3820    0.0000 O   0  0  0  0  0  0  0  0  0  0  0  0
   -3.3589   -6.6283    0.0000 C   0  0  0  0  0  0  0  0  0  0  0  0
   -1.7179   -6.8007    0.0000 C   0  0  0  0  0  0  0  0  0  0  0  0
   -0.6674   -5.4349    0.0000 C   0  0  0  0  0  0  0  0  0  0  0  0
   -1.4521   -5.1800    0.0000 O   0  0  0  0  0  0  0  0  0  0  0  0
  1  2  1  0  0  0  0
  2  3  1  0  0  0  0
  3  4  4  0  0  0  0
  4  5  1  0  0  0  0
  5  6  4  0  0  0  0
  6  7  1  0  0  0  0
  6  8  4  0  0  0  0
  8  9  4  0  0  0  0
  9 10  4  0  0  0  0
 10 11  4  0  0  0  0
  5 11  4  0  0  0  0
 11 12  1  0  0  0  0
  4 13  4  0  0  0  0
 13 14  4  0  0  0  0
 14 15  1  0  0  0  0
 15 16  4  0  0  0  0
 16 17  4  0  0  0  0
 17 18  4  0  0  0  0
 18 19  1  0  0  0  0
 19 20  2  0  0  0  0
 19 21  1  0  0  0  0
 21 22  1  0  0  0  0
 22 23  4  0  0  0  0
 23 24  4  0  0  0  0
 24 25  4  0  0  0  0
 25 26  4  0  0  0  0
 26 27  1  0  0  0  0
 27 28  1  0  0  0  0
 27 29  1  0  0  0  0
 27 30  1  0  0  0  0
 26 31  4  0  0  0  0
 22 31  4  0  0  0  0
 18 32  4  0  0  0  0
 32 33  1  0  0  0  0
 33 34  1  0  0  0  0
 32 35  4  0  0  0  0
 15 35  4  0  0  0  0
 14 36  4  0  0  0  0
  3 36  4  0  0  0  0
 36 37  2  0  0  0  0
M  END
> <IC50(uM)>
30.0

> <Outcome>
0.0

> <BindingDB ID>
972698

> <BindingDB MonomerID>
470576

> <BindingDB Ligand Name>
US10815215, Reference Compound 1

> <Curation/DataSource>
US Patent

> <Article DOI>
?

> <PMID>
?

> <Patent Number>
US10815215

> <Authors>
Gradl, SN; Nguyen, D; Eis, K; Gunther, J; Stellfeld, T; Janzer, A; Christian, S; Muller, T; Sheikh, SE; Zhou, HJ; Zhao, C; Sykes, DB; Ferrara, SJ; Liu, K; Krober, M; Merz, C; Niehues, M; Schafer, M; Zimmermann, K; Nising, CF

> <Link to Ligand in BindingDB>
http://www.bindingdb.org/bind/chemsearch/marvin/MolStructure.jsp?monomerid=470576

> <Link to Ligand-Target Pair in BindingDB>
http://www.bindingdb.org/jsp/dbsearch/PrimarySearch_ki.jsp?energyterm=kJ/mole&tag=r21&monomerid=470576&enzyme=Dihydroorotate+dehydrogenase&column=ki&startPg=0&Increment=50&submit=Search

> <PubChem CID>
90065841

> <PubChem SID>
441609752

$$$$

  Mrv2115 07222212352D          

 34 37  0  0  0  0            999 V2000
   -0.6284    2.1599    0.0000 C   0  0  0  0  0  0  0  0  0  0  0  0
   -1.4534    2.1599    0.0000 C   0  0  0  0  0  0  0  0  0  0  0  0
   -1.8659    1.4455    0.0000 C   0  0  0  0  0  0  0  0  0  0  0  0
   -2.6909    1.4455    0.0000 C   0  0  0  0  0  0  0  0  0  0  0  0
   -3.1034    2.1599    0.0000 C   0  0  0  0  0  0  0  0  0  0  0  0
   -3.1034    0.7310    0.0000 O   0  0  0  0  0  0  0  0  0  0  0  0
   -2.6909    0.0165    0.0000 C   0  0  0  0  0  0  0  0  0  0  0  0
   -1.8659    0.0165    0.0000 C   0  0  0  0  0  0  0  0  0  0  0  0
   -1.4534   -0.6979    0.0000 C   0  0  0  0  0  0  0  0  0  0  0  0
   -0.6284   -0.6979    0.0000 N   0  0  0  0  0  0  0  0  0  0  0  0
   -0.1435   -1.3654    0.0000 N   0  0  0  0  0  0  0  0  0  0  0  0
    0.6411   -1.1104    0.0000 C   0  0  0  0  0  0  0  0  0  0  0  0
    0.6411   -0.2854    0.0000 N   0  0  0  0  0  0  0  0  0  0  0  0
   -0.1435   -0.0305    0.0000 C   0  0  0  0  0  0  0  0  0  0  0  0
   -0.3984    0.7541    0.0000 O   0  0  0  0  0  0  0  0  0  0  0  0
    1.3556    0.1271    0.0000 C   0  0  0  0  0  0  0  0  0  0  0  0
    2.0701   -0.2854    0.0000 C   0  0  0  0  0  0  0  0  0  0  0  0
    2.0701   -1.1104    0.0000 C   0  0  0  0  0  0  0  0  0  0  0  0
    1.3556   -1.5229    0.0000 C   0  0  0  0  0  0  0  0  0  0  0  0
   -1.8659   -1.4124    0.0000 C   0  0  0  0  0  0  0  0  0  0  0  0
   -1.4534   -2.1269    0.0000 F   0  0  0  0  0  0  0  0  0  0  0  0
   -2.6909   -1.4124    0.0000 C   0  0  0  0  0  0  0  0  0  0  0  0
   -3.1034   -0.6979    0.0000 C   0  0  0  0  0  0  0  0  0  0  0  0
   -3.9284   -0.6979    0.0000 C   0  0  0  0  0  0  0  0  0  0  0  0
   -4.3409    0.0165    0.0000 O   0  0  0  0  0  0  0  0  0  0  0  0
   -4.3409   -1.4124    0.0000 N   0  0  0  0  0  0  0  0  0  0  0  0
   -3.9284   -2.1269    0.0000 C   0  0  0  0  0  0  0  0  0  0  0  0
   -3.1034   -2.1269    0.0000 N   0  0  0  0  0  0  0  0  0  0  0  0
   -2.6909   -2.8414    0.0000 C   0  0  0  0  0  0  0  0  0  0  0  0
   -3.1034   -3.5558    0.0000 C   0  0  0  0  0  0  0  0  0  0  0  0
   -2.6909   -4.2703    0.0000 C   0  0  0  0  0  0  0  0  0  0  0  0
   -3.9284   -3.5558    0.0000 N   0  0  0  0  0  0  0  0  0  0  0  0
   -4.3409   -2.8414    0.0000 C   0  0  0  0  0  0  0  0  0  0  0  0
   -5.1659   -2.8414    0.0000 C   0  0  0  0  0  0  0  0  0  0  0  0
  1  2  1  0  0  0  0
  2  3  1  0  0  0  0
  3  4  1  0  0  0  0
  4  5  1  0  0  0  0
  4  6  1  0  0  0  0
  6  7  1  0  0  0  0
  7  8  4  0  0  0  0
  8  9  4  0  0  0  0
  9 10  1  0  0  0  0
 10 11  4  0  0  0  0
 11 12  4  0  0  0  0
 12 13  4  0  0  0  0
 13 14  4  0  0  0  0
 10 14  4  0  0  0  0
 14 15  2  0  0  0  0
 13 16  1  0  0  0  0
 16 17  1  0  0  0  0
 17 18  1  0  0  0  0
 18 19  1  0  0  0  0
 12 19  1  0  0  0  0
  9 20  4  0  0  0  0
 20 21  1  0  0  0  0
 20 22  4  0  0  0  0
 22 23  4  0  0  0  0
  7 23  4  0  0  0  0
 23 24  1  0  0  0  0
 24 25  2  0  0  0  0
 24 26  1  0  0  0  0
 26 27  1  0  0  0  0
 27 28  4  0  0  0  0
 28 29  4  0  0  0  0
 29 30  4  0  0  0  0
 30 31  1  0  0  0  0
 30 32  4  0  0  0  0
 32 33  4  0  0  0  0
 27 33  4  0  0  0  0
 33 34  1  0  0  0  0
M  END
> <IC50(uM)>
0.65

> <Outcome>
1.0

> <BindingDB ID>
1020388

> <BindingDB MonomerID>
490344

> <BindingDB Ligand Name>
N-(3,5-dimethylpyrazin-2-yl)-5-fluoro-4-(3-oxo-5,6,7,8-tetrahydro[1,2,4]triazolo[4,3-a]pyridin-2(3H)-yl)-2-[(2S)-pentan-2-yloxy]benzamide::US10968216, Example 12

> <Curation/DataSource>
US Patent

> <Article DOI>
?

> <PMID>
?

> <Patent Number>
US10968216

> <Authors>
Gradl, SN; Nguyen, D; Eis, K; Gunther, J; Stellfeld, T; Janzer, A; Christian, S; Mueller, T; Sheikh, SE; Zhou, HJ; Zhao, C; Sykes, DB; Ferrara, SJ; Liu, K; Herbert, SA; Merz, C; Niehues, M; Nising, CF; Schafer, M; Zimmermann, K; Knablein, J; Thede, K; Faupel, T

> <Link to Ligand in BindingDB>
http://www.bindingdb.org/bind/chemsearch/marvin/MolStructure.jsp?monomerid=490344

> <Link to Ligand-Target Pair in BindingDB>
http://www.bindingdb.org/jsp/dbsearch/PrimarySearch_ki.jsp?energyterm=kJ/mole&tag=r21&monomerid=490344&enzyme=Dihydroorotate+dehydrogenase&column=ki&startPg=0&Increment=50&submit=Search

> <PubChem CID>
134473891

> <PubChem SID>
447117071

$$$$

  Mrv2115 07222212352D          

 26 28  0  0  0  0            999 V2000
   -2.1434   -0.4125    0.0000 C   0  0  0  0  0  0  0  0  0  0  0  0
   -1.4289    0.0000    0.0000 O   0  0  0  0  0  0  0  0  0  0  0  0
   -0.7145   -0.4125    0.0000 C   0  0  0  0  0  0  0  0  0  0  0  0
   -0.7145   -1.2375    0.0000 O   0  0  0  0  0  0  0  0  0  0  0  0
    0.0000    0.0000    0.0000 C   0  0  0  0  0  0  0  0  0  0  0  0
    0.0000    0.8250    0.0000 C   0  0  0  0  0  0  0  0  0  0  0  0
    0.7145    1.2375    0.0000 C   0  0  0  0  0  0  0  0  0  0  0  0
    1.4289    0.8250    0.0000 C   0  0  0  0  0  0  0  0  0  0  0  0
    1.4289   -0.0000    0.0000 C   0  0  0  0  0  0  0  0  0  0  0  0
    0.7145   -0.4125    0.0000 C   0  0  0  0  0  0  0  0  0  0  0  0
    0.7145   -1.2375    0.0000 N   0  0  0  0  0  0  0  0  0  0  0  0
    1.3819   -1.7224    0.0000 C   0  0  0  0  0  0  0  0  0  0  0  0
    1.1270   -2.5070    0.0000 C   0  0  0  0  0  0  0  0  0  0  0  0
    1.6119   -3.1745    0.0000 C   0  0  0  0  0  0  0  0  0  0  0  0
    2.4324   -3.0882    0.0000 C   0  0  0  0  0  0  0  0  0  0  0  0
    2.7679   -2.3346    0.0000 C   0  0  0  0  0  0  0  0  0  0  0  0
    3.5884   -2.2483    0.0000 O   0  0  0  0  0  0  0  0  0  0  0  0
    2.2830   -1.6671    0.0000 O   0  0  0  0  0  0  0  0  0  0  0  0
    2.9173   -3.7557    0.0000 N   0  0  0  0  0  0  0  0  0  0  0  0
    2.5817   -4.5094    0.0000 C   0  0  0  0  0  0  0  0  0  0  0  0
    3.0667   -5.1768    0.0000 O   0  0  0  0  0  0  0  0  0  0  0  0
    1.7613   -4.5956    0.0000 N   0  0  0  0  0  0  0  0  0  0  0  0
    1.2763   -3.9282    0.0000 C   0  0  0  0  0  0  0  0  0  0  0  0
    0.4559   -4.0144    0.0000 O   0  0  0  0  0  0  0  0  0  0  0  0
    0.3020   -2.5070    0.0000 N   0  0  0  0  0  0  0  0  0  0  0  0
    0.0470   -1.7224    0.0000 N   0  0  0  0  0  0  0  0  0  0  0  0
  1  2  1  0  0  0  0
  2  3  1  0  0  0  0
  3  4  2  0  0  0  0
  3  5  1  0  0  0  0
  5  6  4  0  0  0  0
  6  7  4  0  0  0  0
  7  8  4  0  0  0  0
  8  9  4  0  0  0  0
  9 10  4  0  0  0  0
  5 10  4  0  0  0  0
 10 11  1  0  0  0  0
 11 12  4  0  0  0  0
 12 13  4  0  0  0  0
 13 14  1  0  0  0  0
 14 15  4  0  0  0  0
 15 16  1  0  0  0  0
 16 17  2  0  0  0  0
 16 18  1  0  0  0  0
 15 19  4  0  0  0  0
 19 20  4  0  0  0  0
 20 21  2  0  0  0  0
 20 22  4  0  0  0  0
 22 23  4  0  0  0  0
 14 23  4  0  0  0  0
 23 24  2  0  0  0  0
 13 25  4  0  0  0  0
 25 26  4  0  0  0  0
 11 26  4  0  0  0  0
M  STY  2   1 DAT   2 DAT
M  SAL   1  1  19
M  SDT   1 MRV_IMPLICIT_H                                        
M  SDD   1     0.5304   -0.4125    DR    ALL  0       0  
M  SED   1 IMPL_H1
M  SAL   2  1  22
M  SDT   2 MRV_IMPLICIT_H                                        
M  SDD   2     0.5304   -0.4125    DR    ALL  0       0  
M  SED   2 IMPL_H1
M  END
> <IC50(uM)>
0.5

> <Outcome>
1.0

> <BindingDB ID>
50555386

> <BindingDB MonomerID>
50211718

> <BindingDB Ligand Name>
CHEMBL3980064

> <Curation/DataSource>
ChEMBL

> <Article DOI>
10.1016/j.bmc.2017.01.009

> <PMID>
28118956

> <Patent Number>
?

> <Authors>
Inaoka, DK; Iida, M; Hashimoto, S; Tabuchi, T; Kuranaga, T; Balogun, EO; Honma, T; Tanaka, A; Harada, S; Nara, T; Kita, K; Inoue, M

> <Link to Ligand in BindingDB>
http://www.bindingdb.org/bind/chemsearch/marvin/MolStructure.jsp?monomerid=50211718

> <Link to Ligand-Target Pair in BindingDB>
http://www.bindingdb.org/jsp/dbsearch/PrimarySearch_ki.jsp?energyterm=kJ/mole&tag=r21&monomerid=50211718&enzyme=Dihydroorotate+dehydrogenase&column=ki&startPg=0&Increment=50&submit=Search

> <PubChem CID>
134152933

> <PubChem SID>
375983061

$$$$

  Mrv2115 07222212352D          

 20 22  0  0  0  0            999 V2000
   -4.4333    1.6118    0.0000 F   0  0  0  0  0  0  0  0  0  0  0  0
   -3.6263    1.4402    0.0000 C   0  0  0  0  0  0  0  0  0  0  0  0
   -3.7979    0.6333    0.0000 F   0  0  0  0  0  0  0  0  0  0  0  0
   -3.4548    2.2472    0.0000 F   0  0  0  0  0  0  0  0  0  0  0  0
   -2.8194    1.2687    0.0000 C   0  0  0  0  0  0  0  0  0  0  0  0
   -2.2673    1.8818    0.0000 C   0  0  0  0  0  0  0  0  0  0  0  0
   -1.4604    1.7103    0.0000 C   0  0  0  0  0  0  0  0  0  0  0  0
   -1.2054    0.9256    0.0000 C   0  0  0  0  0  0  0  0  0  0  0  0
   -0.3984    0.7541    0.0000 N   0  0  0  0  0  0  0  0  0  0  0  0
   -0.1435   -0.0305    0.0000 C   0  0  0  0  0  0  0  0  0  0  0  0
   -0.6284   -0.6979    0.0000 N   0  0  0  0  0  0  0  0  0  0  0  0
   -0.1435   -1.3654    0.0000 N   0  0  0  0  0  0  0  0  0  0  0  0
    0.6411   -1.1104    0.0000 C   0  0  0  0  0  0  0  0  0  0  0  0
    0.6411   -0.2854    0.0000 C   0  0  0  0  0  0  0  0  0  0  0  0
    1.3556    0.1271    0.0000 C   0  0  0  0  0  0  0  0  0  0  0  0
    2.0701   -0.2854    0.0000 C   0  0  0  0  0  0  0  0  0  0  0  0
    2.0701   -1.1104    0.0000 C   0  0  0  0  0  0  0  0  0  0  0  0
    1.3556   -1.5229    0.0000 C   0  0  0  0  0  0  0  0  0  0  0  0
   -1.7575    0.3126    0.0000 C   0  0  0  0  0  0  0  0  0  0  0  0
   -2.5644    0.4841    0.0000 C   0  0  0  0  0  0  0  0  0  0  0  0
  1  2  1  0  0  0  0
  2  3  1  0  0  0  0
  2  4  1  0  0  0  0
  2  5  1  0  0  0  0
  5  6  4  0  0  0  0
  6  7  4  0  0  0  0
  7  8  4  0  0  0  0
  8  9  1  0  0  0  0
  9 10  1  0  0  0  0
 10 11  4  0  0  0  0
 11 12  4  0  0  0  0
 12 13  4  0  0  0  0
 13 14  4  0  0  0  0
 10 14  4  0  0  0  0
 14 15  1  0  0  0  0
 15 16  1  0  0  0  0
 16 17  1  0  0  0  0
 17 18  1  0  0  0  0
 13 18  1  0  0  0  0
  8 19  4  0  0  0  0
 19 20  4  0  0  0  0
  5 20  4  0  0  0  0
M  STY  1   1 DAT
M  SAL   1  1  11
M  SDT   1 MRV_IMPLICIT_H                                        
M  SDD   1     0.5304   -0.4125    DR    ALL  0       0  
M  SED   1 IMPL_H1
M  END
> <IC50(uM)>
6.2

> <Outcome>
0.0

> <BindingDB ID>
50786775

> <BindingDB MonomerID>
50066594

> <BindingDB Ligand Name>
(4,5,6,7-Tetrahydro-1H-indazol-3-yl)-(4-trifluoromethyl-phenyl)-amine::CHEMBL118168

> <Curation/DataSource>
ChEMBL

> <Article DOI>
10.1021/jm981028c

> <PMID>
9719606

> <Patent Number>
?

> <Authors>
Papageorgiou, C; Albert, R; Floersheim, P; Lemaire, M; Bitch, F; Weber, HP; Andersen, E; Hungerford, V; Schreier, MH

> <Link to Ligand in BindingDB>
http://www.bindingdb.org/bind/chemsearch/marvin/MolStructure.jsp?monomerid=50066594

> <Link to Ligand-Target Pair in BindingDB>
http://www.bindingdb.org/jsp/dbsearch/PrimarySearch_ki.jsp?energyterm=kJ/mole&tag=r21&monomerid=50066594&enzyme=Dihydroorotate+dehydrogenase&column=ki&startPg=0&Increment=50&submit=Search

> <PubChem CID>
10540764

> <PubChem SID>
103961214

$$$$

  Mrv2115 07222212352D          

 27 29  0  0  0  0            999 V2000
   -2.8579   -1.6500    0.0000 C   0  0  0  0  0  0  0  0  0  0  0  0
   -2.1434   -1.2375    0.0000 C   0  0  0  0  0  0  0  0  0  0  0  0
   -2.1434   -0.4125    0.0000 O   0  0  0  0  0  0  0  0  0  0  0  0
   -1.4289    0.0000    0.0000 C   0  0  0  0  0  0  0  0  0  0  0  0
   -0.7145   -0.4125    0.0000 O   0  0  0  0  0  0  0  0  0  0  0  0
   -1.4289    0.8250    0.0000 C   0  0  0  0  0  0  0  0  0  0  0  0
   -2.1434    1.2375    0.0000 C   0  0  0  0  0  0  0  0  0  0  0  0
   -2.1434    2.0625    0.0000 C   0  0  0  0  0  0  0  0  0  0  0  0
   -1.4289    2.4750    0.0000 C   0  0  0  0  0  0  0  0  0  0  0  0
   -0.7145    2.0625    0.0000 C   0  0  0  0  0  0  0  0  0  0  0  0
   -0.7145    1.2375    0.0000 C   0  0  0  0  0  0  0  0  0  0  0  0
    0.0000    0.8250    0.0000 C   0  0  0  0  0  0  0  0  0  0  0  0
    0.0000    0.0000    0.0000 N   0  0  0  0  0  0  0  0  0  0  0  0
    0.7145   -0.4125    0.0000 N   0  0  0  0  0  0  0  0  0  0  0  0
    1.4289   -0.0000    0.0000 C   0  0  0  0  0  0  0  0  0  0  0  0
    0.7145   -1.2375    0.0000 C   0  0  0  0  0  0  0  0  0  0  0  0
    1.3819   -1.7224    0.0000 N   0  0  0  0  0  0  0  0  0  0  0  0
    1.1270   -2.5070    0.0000 C   0  0  0  0  0  0  0  0  0  0  0  0
    1.6119   -3.1745    0.0000 C   0  0  0  0  0  0  0  0  0  0  0  0
    2.4324   -3.0882    0.0000 C   0  0  0  0  0  0  0  0  0  0  0  0
    2.9173   -3.7557    0.0000 C   0  0  0  0  0  0  0  0  0  0  0  0
    2.5817   -4.5094    0.0000 C   0  0  0  0  0  0  0  0  0  0  0  0
    1.7613   -4.5956    0.0000 C   0  0  0  0  0  0  0  0  0  0  0  0
    1.2763   -3.9282    0.0000 C   0  0  0  0  0  0  0  0  0  0  0  0
    0.4559   -4.0144    0.0000 Cl  0  0  0  0  0  0  0  0  0  0  0  0
    0.3020   -2.5070    0.0000 C   0  0  0  0  0  0  0  0  0  0  0  0
    0.0470   -1.7224    0.0000 S   0  0  0  0  0  0  0  0  0  0  0  0
  1  2  1  0  0  0  0
  2  3  1  0  0  0  0
  3  4  1  0  0  0  0
  4  5  2  0  0  0  0
  4  6  1  0  0  0  0
  6  7  4  0  0  0  0
  7  8  4  0  0  0  0
  8  9  4  0  0  0  0
  9 10  4  0  0  0  0
 10 11  4  0  0  0  0
  6 11  4  0  0  0  0
 11 12  1  0  0  0  0
 12 13  2  0  0  0  0
 13 14  1  0  0  0  0
 14 15  1  0  0  0  0
 14 16  1  0  0  0  0
 16 17  4  0  0  0  0
 17 18  4  0  0  0  0
 18 19  1  0  0  0  0
 19 20  4  0  0  0  0
 20 21  4  0  0  0  0
 21 22  4  0  0  0  0
 22 23  4  0  0  0  0
 23 24  4  0  0  0  0
 19 24  4  0  0  0  0
 24 25  1  0  0  0  0
 18 26  4  0  0  0  0
 26 27  4  0  0  0  0
 16 27  4  0  0  0  0
M  END
> <IC50(uM)>
2.785

> <Outcome>
0.0

> <BindingDB ID>
1001148

> <BindingDB MonomerID>
482834

> <BindingDB Ligand Name>
US10919869, No.  B1

> <Curation/DataSource>
US Patent

> <Article DOI>
?

> <PMID>
?

> <Patent Number>
US10919869

> <Authors>
Li, H; Xu, Y; Wang, R; Zhao, Z; Song, W; Xu, L

> <Link to Ligand in BindingDB>
http://www.bindingdb.org/bind/chemsearch/marvin/MolStructure.jsp?monomerid=482834

> <Link to Ligand-Target Pair in BindingDB>
http://www.bindingdb.org/jsp/dbsearch/PrimarySearch_ki.jsp?energyterm=kJ/mole&tag=r21&monomerid=482834&enzyme=Dihydroorotate+dehydrogenase&column=ki&startPg=0&Increment=50&submit=Search

> <PubChem CID>
132157955

> <PubChem SID>
443551974

$$$$

  Mrv2115 07222212352D          

 28 31  0  0  0  0            999 V2000
    0.0000   -1.6500    0.0000 C   0  0  0  0  0  0  0  0  0  0  0  0
    0.7145   -1.2375    0.0000 C   0  0  0  0  0  0  0  0  0  0  0  0
    0.7145   -0.4125    0.0000 C   0  0  0  0  0  0  0  0  0  0  0  0
    0.0000    0.0000    0.0000 C   0  0  0  0  0  0  0  0  0  0  0  0
   -0.7145   -0.4125    0.0000 C   0  0  0  0  0  0  0  0  0  0  0  0
   -1.4289    0.0000    0.0000 C   0  0  0  0  0  0  0  0  0  0  0  0
   -1.4289    0.8250    0.0000 C   0  0  0  0  0  0  0  0  0  0  0  0
   -2.1434    1.2375    0.0000 C   0  0  0  0  0  0  0  0  0  0  0  0
   -2.8579    0.8250    0.0000 C   0  0  0  0  0  0  0  0  0  0  0  0
   -3.5724    1.2375    0.0000 C   0  0  0  0  0  0  0  0  0  0  0  0
   -3.5724    2.0625    0.0000 C   0  0  0  0  0  0  0  0  0  0  0  0
   -2.8579    2.4750    0.0000 N   0  0  0  0  0  0  0  0  0  0  0  0
   -2.1434    2.0625    0.0000 C   0  0  0  0  0  0  0  0  0  0  0  0
   -1.4289    2.4750    0.0000 F   0  0  0  0  0  0  0  0  0  0  0  0
   -0.7145    1.2375    0.0000 C   0  0  0  0  0  0  0  0  0  0  0  0
    0.0000    0.8250    0.0000 C   0  0  0  0  0  0  0  0  0  0  0  0
    1.4289    0.0000    0.0000 N   0  0  0  0  0  0  0  0  0  0  0  0
    2.1434   -0.4125    0.0000 C   0  0  0  0  0  0  0  0  0  0  0  0
    2.8579    0.0000    0.0000 C   0  0  0  0  0  0  0  0  0  0  0  0
    3.5724   -0.4125    0.0000 C   0  0  0  0  0  0  0  0  0  0  0  0
    3.5724   -1.2375    0.0000 C   0  0  0  0  0  0  0  0  0  0  0  0
    4.2868   -1.6500    0.0000 F   0  0  0  0  0  0  0  0  0  0  0  0
    2.8579   -1.6500    0.0000 C   0  0  0  0  0  0  0  0  0  0  0  0
    2.1434   -1.2375    0.0000 C   0  0  0  0  0  0  0  0  0  0  0  0
    1.4289   -1.6500    0.0000 C   0  0  0  0  0  0  0  0  0  0  0  0
    1.4289   -2.4750    0.0000 C   0  0  0  0  0  0  0  0  0  0  0  0
    0.7145   -2.8875    0.0000 O   0  0  0  0  0  0  0  0  0  0  0  0
    2.1434   -2.8875    0.0000 O   0  0  0  0  0  0  0  0  0  0  0  0
  1  2  1  0  0  0  0
  2  3  4  0  0  0  0
  3  4  1  0  0  0  0
  4  5  4  0  0  0  0
  5  6  4  0  0  0  0
  6  7  4  0  0  0  0
  7  8  1  0  0  0  0
  8  9  4  0  0  0  0
  9 10  4  0  0  0  0
 10 11  4  0  0  0  0
 11 12  4  0  0  0  0
 12 13  4  0  0  0  0
  8 13  4  0  0  0  0
 13 14  1  0  0  0  0
  7 15  4  0  0  0  0
 15 16  4  0  0  0  0
  4 16  4  0  0  0  0
  3 17  4  0  0  0  0
 17 18  4  0  0  0  0
 18 19  4  0  0  0  0
 19 20  4  0  0  0  0
 20 21  4  0  0  0  0
 21 22  1  0  0  0  0
 21 23  4  0  0  0  0
 23 24  4  0  0  0  0
 18 24  4  0  0  0  0
 24 25  4  0  0  0  0
  2 25  4  0  0  0  0
 25 26  1  0  0  0  0
 26 27  2  0  0  0  0
 26 28  1  0  0  0  0
M  END
> <IC50(uM)>
0.079

> <Outcome>
1.0

> <BindingDB ID>
51126190

> <BindingDB MonomerID>
50461876

> <BindingDB Ligand Name>
CHEMBL4228942

> <Curation/DataSource>
ChEMBL

> <Article DOI>
10.1021/acs.jmedchem.7b01862

> <PMID>
29727569

> <Patent Number>
?

> <Authors>
Madak, JT; Cuthbertson, CR; Miyata, Y; Tamura, S; Petrunak, EM; Stuckey, JA; Han, Y; He, M; Sun, D; Showalter, HD; Neamati, N

> <Link to Ligand in BindingDB>
http://www.bindingdb.org/bind/chemsearch/marvin/MolStructure.jsp?monomerid=50461876

> <Link to Ligand-Target Pair in BindingDB>
http://www.bindingdb.org/jsp/dbsearch/PrimarySearch_ki.jsp?energyterm=kJ/mole&tag=r21&monomerid=50461876&enzyme=Dihydroorotate+dehydrogenase&column=ki&startPg=0&Increment=50&submit=Search

> <PubChem CID>
145989710

> <PubChem SID>
433929141

$$$$

  Mrv2115 07222212352D          

 26 29  0  0  0  0            999 V2000
   -0.1712   -0.6979    0.0000 C   0  0  0  0  0  0  0  0  0  0  0  0
    0.6538   -0.6979    0.0000 C   0  0  0  0  0  0  0  0  0  0  0  0
    1.1387   -0.0305    0.0000 N   0  0  0  0  0  0  0  0  0  0  0  0
    1.9233   -0.2854    0.0000 C   0  0  0  0  0  0  0  0  0  0  0  0
    2.6378    0.1271    0.0000 C   0  0  0  0  0  0  0  0  0  0  0  0
    2.6378    0.9521    0.0000 C   0  0  0  0  0  0  0  0  0  0  0  0
    3.3523    1.3646    0.0000 O   0  0  0  0  0  0  0  0  0  0  0  0
    1.9233    1.3646    0.0000 O   0  0  0  0  0  0  0  0  0  0  0  0
    3.3523   -0.2854    0.0000 C   0  0  0  0  0  0  0  0  0  0  0  0
    3.3523   -1.1104    0.0000 C   0  0  0  0  0  0  0  0  0  0  0  0
    4.0668   -1.5229    0.0000 C   0  0  0  0  0  0  0  0  0  0  0  0
    4.7812   -1.1104    0.0000 C   0  0  0  0  0  0  0  0  0  0  0  0
    5.4957   -1.5229    0.0000 C   0  0  0  0  0  0  0  0  0  0  0  0
    5.4957   -2.3479    0.0000 C   0  0  0  0  0  0  0  0  0  0  0  0
    6.2102   -2.7604    0.0000 C   0  0  0  0  0  0  0  0  0  0  0  0
    6.9246   -2.3479    0.0000 C   0  0  0  0  0  0  0  0  0  0  0  0
    7.6391   -2.7604    0.0000 C   0  0  0  0  0  0  0  0  0  0  0  0
    7.6391   -3.5854    0.0000 C   0  0  0  0  0  0  0  0  0  0  0  0
    6.9246   -3.9979    0.0000 C   0  0  0  0  0  0  0  0  0  0  0  0
    6.9246   -4.8229    0.0000 O   0  0  0  0  0  0  0  0  0  0  0  0
    6.2102   -3.5854    0.0000 C   0  0  0  0  0  0  0  0  0  0  0  0
    4.7812   -2.7604    0.0000 C   0  0  0  0  0  0  0  0  0  0  0  0
    4.0668   -2.3479    0.0000 C   0  0  0  0  0  0  0  0  0  0  0  0
    2.6378   -1.5229    0.0000 C   0  0  0  0  0  0  0  0  0  0  0  0
    1.9233   -1.1104    0.0000 C   0  0  0  0  0  0  0  0  0  0  0  0
    1.1387   -1.3654    0.0000 N   0  0  0  0  0  0  0  0  0  0  0  0
  1  2  1  0  0  0  0
  2  3  4  0  0  0  0
  3  4  4  0  0  0  0
  4  5  4  0  0  0  0
  5  6  1  0  0  0  0
  6  7  2  0  0  0  0
  6  8  1  0  0  0  0
  5  9  4  0  0  0  0
  9 10  4  0  0  0  0
 10 11  1  0  0  0  0
 11 12  4  0  0  0  0
 12 13  4  0  0  0  0
 13 14  4  0  0  0  0
 14 15  1  0  0  0  0
 15 16  4  0  0  0  0
 16 17  4  0  0  0  0
 17 18  4  0  0  0  0
 18 19  4  0  0  0  0
 19 20  1  0  0  0  0
 19 21  4  0  0  0  0
 15 21  4  0  0  0  0
 14 22  4  0  0  0  0
 22 23  4  0  0  0  0
 11 23  4  0  0  0  0
 10 24  4  0  0  0  0
 24 25  4  0  0  0  0
  4 25  4  0  0  0  0
 25 26  4  0  0  0  0
  2 26  4  0  0  0  0
M  STY  1   1 DAT
M  SAL   1  1  26
M  SDT   1 MRV_IMPLICIT_H                                        
M  SDD   1     0.5304   -0.4125    DR    ALL  0       0  
M  SED   1 IMPL_H1
M  END
> <IC50(uM)>
0.055

> <Outcome>
1.0

> <BindingDB ID>
1045587

> <BindingDB MonomerID>
501645

> <BindingDB Ligand Name>
US11028054, Example 16

> <Curation/DataSource>
US Patent

> <Article DOI>
?

> <PMID>
?

> <Patent Number>
US11028054

> <Authors>
Thunuguntla, SS; Hosahalli, S; Panigrahi, SK; Schwarz, M; Arit, M

> <Link to Ligand in BindingDB>
http://www.bindingdb.org/bind/chemsearch/marvin/MolStructure.jsp?monomerid=501645

> <Link to Ligand-Target Pair in BindingDB>
http://www.bindingdb.org/jsp/dbsearch/PrimarySearch_ki.jsp?energyterm=kJ/mole&tag=r21&monomerid=501645&enzyme=Dihydroorotate+dehydrogenase&column=ki&startPg=0&Increment=50&submit=Search

> <PubChem CID>
?

> <PubChem SID>
?

$$$$

  Mrv2115 07222212352D          

 36 39  0  0  0  0            999 V2000
   -5.1659    1.4455    0.0000 C   0  0  0  0  0  0  0  0  0  0  0  0
   -5.5784    0.7310    0.0000 C   0  0  0  0  0  0  0  0  0  0  0  0
   -6.4034    0.7310    0.0000 C   0  0  0  0  0  0  0  0  0  0  0  0
   -6.8159    0.0165    0.0000 C   0  0  0  0  0  0  0  0  0  0  0  0
   -7.6409    0.0165    0.0000 F   0  0  0  0  0  0  0  0  0  0  0  0
   -6.4034   -0.6979    0.0000 C   0  0  0  0  0  0  0  0  0  0  0  0
   -5.5784   -0.6979    0.0000 C   0  0  0  0  0  0  0  0  0  0  0  0
   -5.1659   -1.4124    0.0000 Cl  0  0  0  0  0  0  0  0  0  0  0  0
   -5.1659    0.0165    0.0000 C   0  0  0  0  0  0  0  0  0  0  0  0
   -4.3409    0.0165    0.0000 N   0  0  0  0  0  0  0  0  0  0  0  0
   -3.9284   -0.6979    0.0000 C   0  0  0  0  0  0  0  0  0  0  0  0
   -4.3409   -1.4124    0.0000 O   0  0  0  0  0  0  0  0  0  0  0  0
   -3.1034   -0.6979    0.0000 C   0  0  0  0  0  0  0  0  0  0  0  0
   -2.6909    0.0165    0.0000 C   0  0  0  0  0  0  0  0  0  0  0  0
   -1.8659    0.0165    0.0000 C   0  0  0  0  0  0  0  0  0  0  0  0
   -1.4534    0.7310    0.0000 F   0  0  0  0  0  0  0  0  0  0  0  0
   -1.4534   -0.6979    0.0000 C   0  0  0  0  0  0  0  0  0  0  0  0
   -0.6284   -0.6979    0.0000 N   0  0  0  0  0  0  0  0  0  0  0  0
   -0.1435   -1.3654    0.0000 N   0  0  0  0  0  0  0  0  0  0  0  0
    0.6411   -1.1104    0.0000 C   0  0  0  0  0  0  0  0  0  0  0  0
    0.6411   -0.2854    0.0000 N   0  0  0  0  0  0  0  0  0  0  0  0
   -0.1435   -0.0305    0.0000 C   0  0  0  0  0  0  0  0  0  0  0  0
   -0.3984    0.7541    0.0000 O   0  0  0  0  0  0  0  0  0  0  0  0
    1.3556    0.1271    0.0000 C   0  0  0  0  0  0  0  0  0  0  0  0
    2.0701   -0.2854    0.0000 C   0  0  0  0  0  0  0  0  0  0  0  0
    2.0701   -1.1104    0.0000 C   0  0  0  0  0  0  0  0  0  0  0  0
    1.3556   -1.5229    0.0000 C   0  0  0  0  0  0  0  0  0  0  0  0
   -1.8659   -1.4124    0.0000 C   0  0  0  0  0  0  0  0  0  0  0  0
   -2.6909   -1.4124    0.0000 C   0  0  0  0  0  0  0  0  0  0  0  0
   -3.1034   -2.1269    0.0000 O   0  0  0  0  0  0  0  0  0  0  0  0
   -2.6909   -2.8414    0.0000 C   0  0  0  0  0  0  0  0  0  0  0  0
   -1.8659   -2.8414    0.0000 C   0  0  0  0  0  0  0  0  0  0  0  0
   -3.1034   -3.5558    0.0000 C   0  0  0  0  0  0  0  0  0  0  0  0
   -3.8179   -3.1433    0.0000 F   0  0  0  0  0  0  0  0  0  0  0  0
   -2.3890   -3.9683    0.0000 F   0  0  0  0  0  0  0  0  0  0  0  0
   -3.5159   -4.2703    0.0000 F   0  0  0  0  0  0  0  0  0  0  0  0
  1  2  1  0  0  0  0
  2  3  4  0  0  0  0
  3  4  4  0  0  0  0
  4  5  1  0  0  0  0
  4  6  4  0  0  0  0
  6  7  4  0  0  0  0
  7  8  1  0  0  0  0
  7  9  4  0  0  0  0
  2  9  4  0  0  0  0
  9 10  1  0  0  0  0
 10 11  1  0  0  0  0
 11 12  2  0  0  0  0
 11 13  1  0  0  0  0
 13 14  4  0  0  0  0
 14 15  4  0  0  0  0
 15 16  1  0  0  0  0
 15 17  4  0  0  0  0
 17 18  1  0  0  0  0
 18 19  4  0  0  0  0
 19 20  4  0  0  0  0
 20 21  4  0  0  0  0
 21 22  4  0  0  0  0
 18 22  4  0  0  0  0
 22 23  2  0  0  0  0
 21 24  1  0  0  0  0
 24 25  1  0  0  0  0
 25 26  1  0  0  0  0
 26 27  1  0  0  0  0
 20 27  1  0  0  0  0
 17 28  4  0  0  0  0
 28 29  4  0  0  0  0
 13 29  4  0  0  0  0
 29 30  1  0  0  0  0
 30 31  1  0  0  0  0
 31 32  1  0  0  0  0
 31 33  1  0  0  0  0
 33 34  1  0  0  0  0
 33 35  1  0  0  0  0
 33 36  1  0  0  0  0
M  END
> <IC50(uM)>
0.003

> <Outcome>
1.0

> <BindingDB ID>
1020443

> <BindingDB MonomerID>
490394

> <BindingDB Ligand Name>
N-(2-chloro-4-fluoro-6-methylphenyl)-5-fluoro-4-(3-oxo-5,6,7,8-tetrahydro[1,2,4]triazolo[4,3-a]pyridin-2(3H)-yl)-2-{[(2S)-1,1,1-trifluoropropan-2-yl]oxy}benzamide::US10968216, Example 62

> <Curation/DataSource>
US Patent

> <Article DOI>
?

> <PMID>
?

> <Patent Number>
US10968216

> <Authors>
Gradl, SN; Nguyen, D; Eis, K; Gunther, J; Stellfeld, T; Janzer, A; Christian, S; Mueller, T; Sheikh, SE; Zhou, HJ; Zhao, C; Sykes, DB; Ferrara, SJ; Liu, K; Herbert, SA; Merz, C; Niehues, M; Nising, CF; Schafer, M; Zimmermann, K; Knablein, J; Thede, K; Faupel, T

> <Link to Ligand in BindingDB>
http://www.bindingdb.org/bind/chemsearch/marvin/MolStructure.jsp?monomerid=490394

> <Link to Ligand-Target Pair in BindingDB>
http://www.bindingdb.org/jsp/dbsearch/PrimarySearch_ki.jsp?energyterm=kJ/mole&tag=r21&monomerid=490394&enzyme=Dihydroorotate+dehydrogenase&column=ki&startPg=0&Increment=50&submit=Search

> <PubChem CID>
134473956

> <PubChem SID>
447117121

$$$$

  Mrv2115 07222212352D          

 28 30  0  0  0  0            999 V2000
    0.0000    0.0000    0.0000 C   0  0  0  0  0  0  0  0  0  0  0  0
    0.7145   -0.4125    0.0000 C   0  0  0  0  0  0  0  0  0  0  0  0
    0.7145   -1.2375    0.0000 O   0  0  0  0  0  0  0  0  0  0  0  0
    1.4289   -1.6500    0.0000 C   0  0  0  0  0  0  0  0  0  0  0  0
    2.1434   -1.2375    0.0000 O   0  0  0  0  0  0  0  0  0  0  0  0
    1.4289   -2.4750    0.0000 C   0  0  0  0  0  0  0  0  0  0  0  0
    2.0964   -2.9599    0.0000 S   0  0  0  0  0  0  0  0  0  0  0  0
    1.8414   -3.7445    0.0000 C   0  0  0  0  0  0  0  0  0  0  0  0
    2.3264   -4.4120    0.0000 N   0  0  0  0  0  0  0  0  0  0  0  0
    3.1468   -4.3257    0.0000 C   0  0  0  0  0  0  0  0  0  0  0  0
    3.4824   -3.5721    0.0000 C   0  0  0  0  0  0  0  0  0  0  0  0
    4.3029   -3.4858    0.0000 C   0  0  0  0  0  0  0  0  0  0  0  0
    4.7878   -4.1533    0.0000 C   0  0  0  0  0  0  0  0  0  0  0  0
    5.6083   -4.0670    0.0000 C   0  0  0  0  0  0  0  0  0  0  0  0
    4.4522   -4.9070    0.0000 C   0  0  0  0  0  0  0  0  0  0  0  0
    4.9372   -5.5744    0.0000 C   0  0  0  0  0  0  0  0  0  0  0  0
    3.6318   -4.9932    0.0000 C   0  0  0  0  0  0  0  0  0  0  0  0
    1.0164   -3.7445    0.0000 N   0  0  0  0  0  0  0  0  0  0  0  0
    0.7615   -2.9599    0.0000 C   0  0  0  0  0  0  0  0  0  0  0  0
   -0.0231   -2.7050    0.0000 N   0  0  0  0  0  0  0  0  0  0  0  0
   -0.6362   -3.2570    0.0000 C   0  0  0  0  0  0  0  0  0  0  0  0
   -0.4647   -4.0640    0.0000 O   0  0  0  0  0  0  0  0  0  0  0  0
   -1.4208   -3.0021    0.0000 C   0  0  0  0  0  0  0  0  0  0  0  0
   -2.0339   -3.5541    0.0000 C   0  0  0  0  0  0  0  0  0  0  0  0
   -2.8186   -3.2992    0.0000 C   0  0  0  0  0  0  0  0  0  0  0  0
   -2.9901   -2.4922    0.0000 C   0  0  0  0  0  0  0  0  0  0  0  0
   -2.3770   -1.9402    0.0000 C   0  0  0  0  0  0  0  0  0  0  0  0
   -1.5924   -2.1951    0.0000 C   0  0  0  0  0  0  0  0  0  0  0  0
  1  2  1  0  0  0  0
  2  3  1  0  0  0  0
  3  4  1  0  0  0  0
  4  5  2  0  0  0  0
  4  6  1  0  0  0  0
  6  7  4  0  0  0  0
  7  8  4  0  0  0  0
  8  9  1  0  0  0  0
  9 10  1  0  0  0  0
 10 11  4  0  0  0  0
 11 12  4  0  0  0  0
 12 13  4  0  0  0  0
 13 14  1  0  0  0  0
 13 15  4  0  0  0  0
 15 16  1  0  0  0  0
 15 17  4  0  0  0  0
 10 17  4  0  0  0  0
  8 18  4  0  0  0  0
 18 19  4  0  0  0  0
  6 19  4  0  0  0  0
 19 20  1  0  0  0  0
 20 21  1  0  0  0  0
 21 22  2  0  0  0  0
 21 23  1  0  0  0  0
 23 24  4  0  0  0  0
 24 25  4  0  0  0  0
 25 26  4  0  0  0  0
 26 27  4  0  0  0  0
 27 28  4  0  0  0  0
 23 28  4  0  0  0  0
M  END
> <IC50(uM)>
9.028

> <Outcome>
0.0

> <BindingDB ID>
50312422

> <BindingDB MonomerID>
50071747

> <BindingDB Ligand Name>
CHEMBL3410586

> <Curation/DataSource>
ChEMBL

> <Article DOI>
10.1021/jm501127s

> <PMID>
25580811

> <Patent Number>
?

> <Authors>
Zhu, J; Han, L; Diao, Y; Ren, X; Xu, M; Xu, L; Li, S; Li, Q; Dong, D; Huang, J; Liu, X; Zhao, Z; Wang, R; Zhu, L; Xu, Y; Qian, X; Li, H

> <Link to Ligand in BindingDB>
http://www.bindingdb.org/bind/chemsearch/marvin/MolStructure.jsp?monomerid=50071747

> <Link to Ligand-Target Pair in BindingDB>
http://www.bindingdb.org/jsp/dbsearch/PrimarySearch_ki.jsp?energyterm=kJ/mole&tag=r21&monomerid=50071747&enzyme=Dihydroorotate+dehydrogenase&column=ki&startPg=0&Increment=50&submit=Search

> <PubChem CID>
118732502

> <PubChem SID>
103965457

$$$$

  Mrv2115 07222212352D          

 23 24  0  0  0  0            999 V2000
    0.0000   -4.9500    0.0000 C   0  0  0  0  0  0  0  0  0  0  0  0
    0.7145   -5.3625    0.0000 C   0  0  0  0  0  0  0  0  0  0  0  0
    0.7145   -6.1875    0.0000 O   0  0  0  0  0  0  0  0  0  0  0  0
    1.4289   -4.9500    0.0000 C   0  0  0  0  0  0  0  0  0  0  0  0
    1.4289   -4.1250    0.0000 C   0  0  0  0  0  0  0  0  0  0  0  0
    1.4289   -3.3000    0.0000 N   0  0  0  0  0  0  0  0  0  0  0  0
    2.1434   -5.3625    0.0000 C   0  0  0  0  0  0  0  0  0  0  0  0
    2.1434   -6.1875    0.0000 O   0  0  0  0  0  0  0  0  0  0  0  0
    2.8579   -4.9500    0.0000 N   0  0  0  0  0  0  0  0  0  0  0  0
    3.5724   -5.3625    0.0000 C   0  0  0  0  0  0  0  0  0  0  0  0
    4.2868   -4.9500    0.0000 C   0  0  0  0  0  0  0  0  0  0  0  0
    5.0013   -5.3625    0.0000 C   0  0  0  0  0  0  0  0  0  0  0  0
    5.0013   -6.1875    0.0000 C   0  0  0  0  0  0  0  0  0  0  0  0
    5.7158   -6.6000    0.0000 C   0  0  0  0  0  0  0  0  0  0  0  0
    6.4302   -6.1875    0.0000 C   0  0  0  0  0  0  0  0  0  0  0  0
    7.1447   -6.6000    0.0000 C   0  0  0  0  0  0  0  0  0  0  0  0
    7.1447   -7.4250    0.0000 C   0  0  0  0  0  0  0  0  0  0  0  0
    6.4302   -7.8375    0.0000 C   0  0  0  0  0  0  0  0  0  0  0  0
    6.4302   -8.6625    0.0000 Cl  0  0  0  0  0  0  0  0  0  0  0  0
    5.7158   -7.4250    0.0000 C   0  0  0  0  0  0  0  0  0  0  0  0
    4.2868   -6.6000    0.0000 C   0  0  0  0  0  0  0  0  0  0  0  0
    4.2868   -7.4250    0.0000 Cl  0  0  0  0  0  0  0  0  0  0  0  0
    3.5724   -6.1875    0.0000 C   0  0  0  0  0  0  0  0  0  0  0  0
  1  2  1  0  0  0  0
  2  3  2  0  0  0  0
  2  4  1  0  0  0  0
  4  5  1  0  0  0  0
  5  6  3  0  0  0  0
  4  7  1  0  0  0  0
  7  8  2  0  0  0  0
  7  9  1  0  0  0  0
  9 10  1  0  0  0  0
 10 11  4  0  0  0  0
 11 12  4  0  0  0  0
 12 13  4  0  0  0  0
 13 14  1  0  0  0  0
 14 15  4  0  0  0  0
 15 16  4  0  0  0  0
 16 17  4  0  0  0  0
 17 18  4  0  0  0  0
 18 19  1  0  0  0  0
 18 20  4  0  0  0  0
 14 20  4  0  0  0  0
 13 21  4  0  0  0  0
 21 22  1  0  0  0  0
 21 23  4  0  0  0  0
 10 23  4  0  0  0  0
M  END
> <IC50(uM)>
0.19

> <Outcome>
1.0

> <BindingDB ID>
52795

> <BindingDB MonomerID>
29035

> <BindingDB Ligand Name>
cyanohydroxybutenamide, 25

> <Curation/DataSource>
Curated from the literature by BindingDB

> <Article DOI>
10.1021/jm800963t

> <PMID>
19351152

> <Patent Number>
?

> <Authors>
Davies, M; Heikkil&auml;, T; McConkey, GA; Fishwick, CW; Parsons, MR; Johnson, AP

> <Link to Ligand in BindingDB>
http://www.bindingdb.org/bind/chemsearch/marvin/MolStructure.jsp?monomerid=29035

> <Link to Ligand-Target Pair in BindingDB>
http://www.bindingdb.org/jsp/dbsearch/PrimarySearch_ki.jsp?energyterm=kJ/mole&tag=r21&monomerid=29035&enzyme=Dihydroorotate+dehydrogenase&column=ki&startPg=0&Increment=50&submit=Search

> <PubChem CID>
91896061

> <PubChem SID>
81054464

$$$$

  Mrv2115 07222212352D          

 29 31  0  0  0  0            999 V2000
   -0.7145   -2.8875    0.0000 C   0  0  0  0  0  0  0  0  0  0  0  0
    0.0000   -2.4750    0.0000 C   0  0  0  0  0  0  0  0  0  0  0  0
    0.0000   -1.6500    0.0000 C   0  0  0  0  0  0  0  0  0  0  0  0
    0.7145   -1.2375    0.0000 C   0  0  0  0  0  0  0  0  0  0  0  0
    0.7145   -0.4125    0.0000 C   0  0  0  0  0  0  0  0  0  0  0  0
    0.0000    0.0000    0.0000 C   0  0  0  0  0  0  0  0  0  0  0  0
    0.0000    0.8250    0.0000 C   0  0  0  0  0  0  0  0  0  0  0  0
    0.7145    1.2375    0.0000 C   0  0  0  0  0  0  0  0  0  0  0  0
    1.4289    0.8250    0.0000 C   0  0  0  0  0  0  0  0  0  0  0  0
    2.1434    1.2375    0.0000 O   0  0  0  0  0  0  0  0  0  0  0  0
    2.1434    2.0625    0.0000 C   0  0  0  0  0  0  0  0  0  0  0  0
    2.1434    2.8875    0.0000 F   0  0  0  0  0  0  0  0  0  0  0  0
    1.3184    2.0625    0.0000 F   0  0  0  0  0  0  0  0  0  0  0  0
    2.9684    2.0625    0.0000 F   0  0  0  0  0  0  0  0  0  0  0  0
    1.4289    0.0000    0.0000 C   0  0  0  0  0  0  0  0  0  0  0  0
    1.4289   -1.6500    0.0000 C   0  0  0  0  0  0  0  0  0  0  0  0
    1.4289   -2.4750    0.0000 C   0  0  0  0  0  0  0  0  0  0  0  0
    0.7145   -2.8875    0.0000 C   0  0  0  0  0  0  0  0  0  0  0  0
    0.7145   -3.7125    0.0000 N   0  0  0  0  0  0  0  0  0  0  0  0
    1.4289   -4.1250    0.0000 C   0  0  0  0  0  0  0  0  0  0  0  0
    2.1434   -3.7125    0.0000 O   0  0  0  0  0  0  0  0  0  0  0  0
    1.4289   -4.9500    0.0000 C   0  0  0  0  0  0  0  0  0  0  0  0
    2.0964   -5.4349    0.0000 C   0  0  0  0  0  0  0  0  0  0  0  0
    2.8810   -5.1800    0.0000 C   0  0  0  0  0  0  0  0  0  0  0  0
    3.0525   -4.3730    0.0000 O   0  0  0  0  0  0  0  0  0  0  0  0
    3.4941   -5.7320    0.0000 O   0  0  0  0  0  0  0  0  0  0  0  0
    1.8414   -6.2195    0.0000 C   0  0  0  0  0  0  0  0  0  0  0  0
    1.0164   -6.2195    0.0000 C   0  0  0  0  0  0  0  0  0  0  0  0
    0.7615   -5.4349    0.0000 C   0  0  0  0  0  0  0  0  0  0  0  0
  1  2  1  0  0  0  0
  2  3  4  0  0  0  0
  3  4  4  0  0  0  0
  4  5  1  0  0  0  0
  5  6  4  0  0  0  0
  6  7  4  0  0  0  0
  7  8  4  0  0  0  0
  8  9  4  0  0  0  0
  9 10  1  0  0  0  0
 10 11  1  0  0  0  0
 11 12  1  0  0  0  0
 11 13  1  0  0  0  0
 11 14  1  0  0  0  0
  9 15  4  0  0  0  0
  5 15  4  0  0  0  0
  4 16  4  0  0  0  0
 16 17  4  0  0  0  0
 17 18  4  0  0  0  0
  2 18  4  0  0  0  0
 18 19  1  0  0  0  0
 19 20  1  0  0  0  0
 20 21  2  0  0  0  0
 20 22  1  0  0  0  0
 22 23  2  0  0  0  0
 23 24  1  0  0  0  0
 24 25  2  0  0  0  0
 24 26  1  0  0  0  0
 23 27  1  0  0  0  0
 27 28  1  0  0  0  0
 28 29  1  0  0  0  0
 22 29  1  0  0  0  0
M  END
> <IC50(uM)>
0.15

> <Outcome>
1.0

> <BindingDB ID>
50251728

> <BindingDB MonomerID>
50137310

> <BindingDB Ligand Name>
2-(3-Methyl-3'-trifluoromethoxy-biphenyl-4-ylcarbamoyl)-cyclopent-1-enecarboxylic acid::CHEMBL155597

> <Curation/DataSource>
ChEMBL

> <Article DOI>
10.1016/j.bmcl.2003.10.021

> <PMID>
14684297

> <Patent Number>
?

> <Authors>
Leban, J; Saeb, W; Garcia, G; Baumgartner, R; Kramer, B

> <Link to Ligand in BindingDB>
http://www.bindingdb.org/bind/chemsearch/marvin/MolStructure.jsp?monomerid=50137310

> <Link to Ligand-Target Pair in BindingDB>
http://www.bindingdb.org/jsp/dbsearch/PrimarySearch_ki.jsp?energyterm=kJ/mole&tag=r21&monomerid=50137310&enzyme=Dihydroorotate+dehydrogenase&column=ki&startPg=0&Increment=50&submit=Search

> <PubChem CID>
44369747

> <PubChem SID>
104027476

$$$$

  Mrv2115 07222212352D          

 35 38  0  0  0  0            999 V2000
   -5.1659    1.4455    0.0000 C   0  0  0  0  0  0  0  0  0  0  0  0
   -5.5784    0.7310    0.0000 C   0  0  0  0  0  0  0  0  0  0  0  0
   -6.4034    0.7310    0.0000 N   0  0  0  0  0  0  0  0  0  0  0  0
   -6.8159    0.0165    0.0000 C   0  0  0  0  0  0  0  0  0  0  0  0
   -6.4034   -0.6979    0.0000 C   0  0  0  0  0  0  0  0  0  0  0  0
   -5.5784   -0.6979    0.0000 C   0  0  0  0  0  0  0  0  0  0  0  0
   -5.1659   -1.4124    0.0000 Cl  0  0  0  0  0  0  0  0  0  0  0  0
   -5.1659    0.0165    0.0000 C   0  0  0  0  0  0  0  0  0  0  0  0
   -4.3409    0.0165    0.0000 N   0  0  0  0  0  0  0  0  0  0  0  0
   -3.9284   -0.6979    0.0000 C   0  0  0  0  0  0  0  0  0  0  0  0
   -4.3409   -1.4124    0.0000 O   0  0  0  0  0  0  0  0  0  0  0  0
   -3.1034   -0.6979    0.0000 C   0  0  0  0  0  0  0  0  0  0  0  0
   -2.6909    0.0165    0.0000 C   0  0  0  0  0  0  0  0  0  0  0  0
   -1.8659    0.0165    0.0000 C   0  0  0  0  0  0  0  0  0  0  0  0
   -1.4534    0.7310    0.0000 F   0  0  0  0  0  0  0  0  0  0  0  0
   -1.4534   -0.6979    0.0000 C   0  0  0  0  0  0  0  0  0  0  0  0
   -0.6284   -0.6979    0.0000 N   0  0  0  0  0  0  0  0  0  0  0  0
   -0.1435   -1.3654    0.0000 N   0  0  0  0  0  0  0  0  0  0  0  0
    0.6411   -1.1104    0.0000 C   0  0  0  0  0  0  0  0  0  0  0  0
    0.6411   -0.2854    0.0000 N   0  0  0  0  0  0  0  0  0  0  0  0
   -0.1435   -0.0305    0.0000 C   0  0  0  0  0  0  0  0  0  0  0  0
   -0.3984    0.7541    0.0000 O   0  0  0  0  0  0  0  0  0  0  0  0
    1.3556    0.1271    0.0000 C   0  0  0  0  0  0  0  0  0  0  0  0
    2.0701   -0.2854    0.0000 C   0  0  0  0  0  0  0  0  0  0  0  0
    2.0701   -1.1104    0.0000 O   0  0  0  0  0  0  0  0  0  0  0  0
    1.3556   -1.5229    0.0000 C   0  0  0  0  0  0  0  0  0  0  0  0
   -1.8659   -1.4124    0.0000 C   0  0  0  0  0  0  0  0  0  0  0  0
   -2.6909   -1.4124    0.0000 C   0  0  0  0  0  0  0  0  0  0  0  0
   -3.1034   -2.1269    0.0000 O   0  0  0  0  0  0  0  0  0  0  0  0
   -2.6909   -2.8414    0.0000 C   0  0  0  0  0  0  0  0  0  0  0  0
   -1.8659   -2.8414    0.0000 C   0  0  0  0  0  0  0  0  0  0  0  0
   -3.1034   -3.5558    0.0000 C   0  0  0  0  0  0  0  0  0  0  0  0
   -3.8179   -3.1433    0.0000 F   0  0  0  0  0  0  0  0  0  0  0  0
   -2.3890   -3.9683    0.0000 F   0  0  0  0  0  0  0  0  0  0  0  0
   -3.5159   -4.2703    0.0000 F   0  0  0  0  0  0  0  0  0  0  0  0
  1  2  1  0  0  0  0
  2  3  4  0  0  0  0
  3  4  4  0  0  0  0
  4  5  4  0  0  0  0
  5  6  4  0  0  0  0
  6  7  1  0  0  0  0
  6  8  4  0  0  0  0
  2  8  4  0  0  0  0
  8  9  1  0  0  0  0
  9 10  1  0  0  0  0
 10 11  2  0  0  0  0
 10 12  1  0  0  0  0
 12 13  4  0  0  0  0
 13 14  4  0  0  0  0
 14 15  1  0  0  0  0
 14 16  4  0  0  0  0
 16 17  1  0  0  0  0
 17 18  4  0  0  0  0
 18 19  4  0  0  0  0
 19 20  4  0  0  0  0
 20 21  4  0  0  0  0
 17 21  4  0  0  0  0
 21 22  2  0  0  0  0
 20 23  1  0  0  0  0
 23 24  1  0  0  0  0
 24 25  1  0  0  0  0
 25 26  1  0  0  0  0
 19 26  1  0  0  0  0
 16 27  4  0  0  0  0
 27 28  4  0  0  0  0
 12 28  4  0  0  0  0
 28 29  1  0  0  0  0
 29 30  1  0  0  0  0
 30 31  1  0  0  0  0
 30 32  1  0  0  0  0
 32 33  1  0  0  0  0
 32 34  1  0  0  0  0
 32 35  1  0  0  0  0
M  END
> <IC50(uM)>
0.17

> <Outcome>
1.0

> <BindingDB ID>
1020598

> <BindingDB MonomerID>
490537

> <BindingDB Ligand Name>
N-(4-chloro-2-methylpyridin-3-yl)-5-fluoro-4-(3-oxo-5,6-dihydro-3H-[1,2,4]triazolo[3,4-c]-[1,4]oxazin-2(8H)-yl)-2-{[(2S)-1,1,1-trifluoropropan-2-yl]oxy}benzamide::US10968216, Example 205

> <Curation/DataSource>
US Patent

> <Article DOI>
?

> <PMID>
?

> <Patent Number>
US10968216

> <Authors>
Gradl, SN; Nguyen, D; Eis, K; Gunther, J; Stellfeld, T; Janzer, A; Christian, S; Mueller, T; Sheikh, SE; Zhou, HJ; Zhao, C; Sykes, DB; Ferrara, SJ; Liu, K; Herbert, SA; Merz, C; Niehues, M; Nising, CF; Schafer, M; Zimmermann, K; Knablein, J; Thede, K; Faupel, T

> <Link to Ligand in BindingDB>
http://www.bindingdb.org/bind/chemsearch/marvin/MolStructure.jsp?monomerid=490537

> <Link to Ligand-Target Pair in BindingDB>
http://www.bindingdb.org/jsp/dbsearch/PrimarySearch_ki.jsp?energyterm=kJ/mole&tag=r21&monomerid=490537&enzyme=Dihydroorotate+dehydrogenase&column=ki&startPg=0&Increment=50&submit=Search

> <PubChem CID>
134474362

> <PubChem SID>
447117263

$$$$

  Mrv2115 07222212352D          

 36 39  0  0  0  0            999 V2000
   -2.8588    9.5604    0.0000 C   0  0  0  0  0  0  0  0  0  0  0  0
   -2.5233   10.3141    0.0000 C   0  0  0  0  0  0  0  0  0  0  0  0
   -3.0082   10.9815    0.0000 C   0  0  0  0  0  0  0  0  0  0  0  0
   -2.6727   11.7352    0.0000 C   0  0  0  0  0  0  0  0  0  0  0  0
   -1.8522   11.8214    0.0000 C   0  0  0  0  0  0  0  0  0  0  0  0
   -1.3673   11.1540    0.0000 C   0  0  0  0  0  0  0  0  0  0  0  0
   -0.5468   11.2402    0.0000 F   0  0  0  0  0  0  0  0  0  0  0  0
   -1.7028   10.4003    0.0000 C   0  0  0  0  0  0  0  0  0  0  0  0
   -1.2179    9.7329    0.0000 N   0  0  0  0  0  0  0  0  0  0  0  0
   -0.3974    9.8191    0.0000 C   0  0  0  0  0  0  0  0  0  0  0  0
   -0.0618   10.5728    0.0000 O   0  0  0  0  0  0  0  0  0  0  0  0
    0.0875    9.1517    0.0000 C   0  0  0  0  0  0  0  0  0  0  0  0
    0.9080    9.2379    0.0000 C   0  0  0  0  0  0  0  0  0  0  0  0
    1.3929    8.5705    0.0000 C   0  0  0  0  0  0  0  0  0  0  0  0
    2.2134    8.6567    0.0000 F   0  0  0  0  0  0  0  0  0  0  0  0
    1.0574    7.8168    0.0000 C   0  0  0  0  0  0  0  0  0  0  0  0
    1.5423    7.1493    0.0000 N   0  0  0  0  0  0  0  0  0  0  0  0
    1.2873    6.3647    0.0000 N   0  0  0  0  0  0  0  0  0  0  0  0
    1.9548    5.8798    0.0000 C   0  0  0  0  0  0  0  0  0  0  0  0
    1.9548    5.0548    0.0000 C   0  0  0  0  0  0  0  0  0  0  0  0
    2.5381    4.4714    0.0000 C   0  0  0  0  0  0  0  0  0  0  0  0
    1.9548    3.8881    0.0000 C   0  0  0  0  0  0  0  0  0  0  0  0
    1.3714    4.4714    0.0000 C   0  0  0  0  0  0  0  0  0  0  0  0
    2.6222    6.3647    0.0000 N   0  0  0  0  0  0  0  0  0  0  0  0
    3.4068    6.1098    0.0000 C   0  0  0  0  0  0  0  0  0  0  0  0
    2.3673    7.1493    0.0000 C   0  0  0  0  0  0  0  0  0  0  0  0
    2.8522    7.8168    0.0000 O   0  0  0  0  0  0  0  0  0  0  0  0
    0.2369    7.7305    0.0000 C   0  0  0  0  0  0  0  0  0  0  0  0
   -0.2480    8.3980    0.0000 C   0  0  0  0  0  0  0  0  0  0  0  0
   -1.0685    8.3117    0.0000 O   0  0  0  0  0  0  0  0  0  0  0  0
   -1.4041    7.5581    0.0000 C   0  0  0  0  0  0  0  0  0  0  0  0
   -0.9192    6.8906    0.0000 C   0  0  0  0  0  0  0  0  0  0  0  0
   -2.2246    7.4718    0.0000 C   0  0  0  0  0  0  0  0  0  0  0  0
   -2.3108    8.2923    0.0000 F   0  0  0  0  0  0  0  0  0  0  0  0
   -2.1383    6.6514    0.0000 F   0  0  0  0  0  0  0  0  0  0  0  0
   -3.0450    7.3856    0.0000 F   0  0  0  0  0  0  0  0  0  0  0  0
  1  2  1  0  0  0  0
  2  3  4  0  0  0  0
  3  4  4  0  0  0  0
  4  5  4  0  0  0  0
  5  6  4  0  0  0  0
  6  7  1  0  0  0  0
  6  8  4  0  0  0  0
  2  8  4  0  0  0  0
  8  9  1  0  0  0  0
  9 10  1  0  0  0  0
 10 11  2  0  0  0  0
 10 12  1  0  0  0  0
 12 13  4  0  0  0  0
 13 14  4  0  0  0  0
 14 15  1  0  0  0  0
 14 16  4  0  0  0  0
 16 17  1  0  0  0  0
 17 18  4  0  0  0  0
 18 19  4  0  0  0  0
 19 20  1  0  0  0  0
 20 21  1  0  0  0  0
 21 22  1  0  0  0  0
 22 23  1  0  0  0  0
 20 23  1  0  0  0  0
 19 24  4  0  0  0  0
 24 25  1  0  0  0  0
 24 26  4  0  0  0  0
 17 26  4  0  0  0  0
 26 27  2  0  0  0  0
 16 28  4  0  0  0  0
 28 29  4  0  0  0  0
 12 29  4  0  0  0  0
 29 30  1  0  0  0  0
 30 31  1  0  0  0  0
 31 32  1  0  0  0  0
 31 33  1  0  0  0  0
 33 34  1  0  0  0  0
 33 35  1  0  0  0  0
 33 36  1  0  0  0  0
M  END
> <IC50(uM)>
0.014

> <Outcome>
1.0

> <BindingDB ID>
972517; 1098671

> <BindingDB MonomerID>
470392

> <BindingDB Ligand Name>
4-(3-cyclobutyl-4-methyl-5-oxo-4,5-dihydro-1H-1,2,4-triazol-1-yl)-5-fluoro-N-(2-fluoro-6-methyl-phenyl)-2-{[(2S)-1,1,1-trifluoropropan-2-yl]oxy}benzamide::US10815215, Example 51; 4-(3-cyclobutyl-4-methyl-5-oxo-4,5-dihydro-1H-1,2,4-triazol-1-yl)-5-fluoro-N-(2-fluoro-6-methyl-phenyl)-2-{[(2S)-1,1,1-trifluoropropan-2-yl]oxy}benzamide::US10815215, Example 51::US11130745, Example 51

> <Curation/DataSource>
US Patent

> <Article DOI>
?

> <PMID>
?

> <Patent Number>
US10815215; US11130745

> <Authors>
Gradl, SN; Nguyen, D; Eis, K; Gunther, J; Stellfeld, T; Janzer, A; Christian, S; Muller, T; Sheikh, SE; Zhou, HJ; Zhao, C; Sykes, DB; Ferrara, SJ; Liu, K; Krober, M; Merz, C; Niehues, M; Schafer, M; Zimmermann, K; Nising, CF; Gradl, SN; Nguyen, D; Eis, K; Gunther, J; Stellfeld, T; Janzer, A; Christian, S; Muller, T; Sheikh, SE; Sykes, DB; Ferrara, SJ; Krober, M; Merz, C; Niehues, M; Schafer, M; Zimmermann, K; Nising, CF

> <Link to Ligand in BindingDB>
http://www.bindingdb.org/bind/chemsearch/marvin/MolStructure.jsp?monomerid=470392

> <Link to Ligand-Target Pair in BindingDB>
http://www.bindingdb.org/jsp/dbsearch/PrimarySearch_ki.jsp?energyterm=kJ/mole&tag=r21&monomerid=470392&enzyme=Dihydroorotate+dehydrogenase&column=ki&startPg=0&Increment=50&submit=Search

> <PubChem CID>
134470174

> <PubChem SID>
441609569

$$$$

  Mrv2115 07222212352D          

 36 39  0  0  0  0            999 V2000
   -1.8659    1.4455    0.0000 C   0  0  0  0  0  0  0  0  0  0  0  0
   -2.6909    1.4455    0.0000 C   0  0  0  0  0  0  0  0  0  0  0  0
   -3.1034    0.7310    0.0000 O   0  0  0  0  0  0  0  0  0  0  0  0
   -2.6909    0.0165    0.0000 C   0  0  0  0  0  0  0  0  0  0  0  0
   -1.8659    0.0165    0.0000 C   0  0  0  0  0  0  0  0  0  0  0  0
   -1.4534   -0.6979    0.0000 C   0  0  0  0  0  0  0  0  0  0  0  0
   -0.6284   -0.6979    0.0000 N   0  0  0  0  0  0  0  0  0  0  0  0
   -0.1435   -1.3654    0.0000 N   0  0  0  0  0  0  0  0  0  0  0  0
    0.6411   -1.1104    0.0000 C   0  0  0  0  0  0  0  0  0  0  0  0
    0.6411   -0.2854    0.0000 N   0  0  0  0  0  0  0  0  0  0  0  0
   -0.1435   -0.0305    0.0000 C   0  0  0  0  0  0  0  0  0  0  0  0
   -0.3984    0.7541    0.0000 O   0  0  0  0  0  0  0  0  0  0  0  0
    1.3556    0.1271    0.0000 C   0  0  0  0  0  0  0  0  0  0  0  0
    2.0701   -0.2854    0.0000 C   0  0  0  0  0  0  0  0  0  0  0  0
    2.0701   -1.1104    0.0000 C   0  0  0  0  0  0  0  0  0  0  0  0
    1.3556   -1.5229    0.0000 C   0  0  0  0  0  0  0  0  0  0  0  0
   -1.8659   -1.4124    0.0000 C   0  0  0  0  0  0  0  0  0  0  0  0
   -1.4534   -2.1269    0.0000 Cl  0  0  0  0  0  0  0  0  0  0  0  0
   -2.6909   -1.4124    0.0000 C   0  0  0  0  0  0  0  0  0  0  0  0
   -3.1034   -0.6979    0.0000 C   0  0  0  0  0  0  0  0  0  0  0  0
   -3.9284   -0.6979    0.0000 C   0  0  0  0  0  0  0  0  0  0  0  0
   -4.3409    0.0165    0.0000 O   0  0  0  0  0  0  0  0  0  0  0  0
   -4.3409   -1.4124    0.0000 N   0  0  0  0  0  0  0  0  0  0  0  0
   -5.1659   -1.4124    0.0000 C   0  0  0  0  0  0  0  0  0  0  0  0
   -5.5784   -0.6979    0.0000 C   0  0  0  0  0  0  0  0  0  0  0  0
   -6.4034   -0.6979    0.0000 C   0  0  0  0  0  0  0  0  0  0  0  0
   -6.8159   -1.4124    0.0000 C   0  0  0  0  0  0  0  0  0  0  0  0
   -6.4034   -2.1269    0.0000 C   0  0  0  0  0  0  0  0  0  0  0  0
   -5.5784   -2.1269    0.0000 C   0  0  0  0  0  0  0  0  0  0  0  0
   -5.1659   -2.8414    0.0000 C   0  0  0  0  0  0  0  0  0  0  0  0
   -5.5784   -3.5558    0.0000 F   0  0  0  0  0  0  0  0  0  0  0  0
   -4.3409   -2.8414    0.0000 F   0  0  0  0  0  0  0  0  0  0  0  0
   -3.1034    2.1599    0.0000 C   0  0  0  0  0  0  0  0  0  0  0  0
   -2.3890    2.5724    0.0000 F   0  0  0  0  0  0  0  0  0  0  0  0
   -3.8179    1.7474    0.0000 F   0  0  0  0  0  0  0  0  0  0  0  0
   -3.5159    2.8744    0.0000 F   0  0  0  0  0  0  0  0  0  0  0  0
  1  2  1  0  0  0  0
  2  3  1  0  0  0  0
  3  4  1  0  0  0  0
  4  5  4  0  0  0  0
  5  6  4  0  0  0  0
  6  7  1  0  0  0  0
  7  8  4  0  0  0  0
  8  9  4  0  0  0  0
  9 10  4  0  0  0  0
 10 11  4  0  0  0  0
  7 11  4  0  0  0  0
 11 12  2  0  0  0  0
 10 13  1  0  0  0  0
 13 14  1  0  0  0  0
 14 15  1  0  0  0  0
 15 16  1  0  0  0  0
  9 16  1  0  0  0  0
  6 17  4  0  0  0  0
 17 18  1  0  0  0  0
 17 19  4  0  0  0  0
 19 20  4  0  0  0  0
  4 20  4  0  0  0  0
 20 21  1  0  0  0  0
 21 22  2  0  0  0  0
 21 23  1  0  0  0  0
 23 24  1  0  0  0  0
 24 25  4  0  0  0  0
 25 26  4  0  0  0  0
 26 27  4  0  0  0  0
 27 28  4  0  0  0  0
 28 29  4  0  0  0  0
 24 29  4  0  0  0  0
 29 30  1  0  0  0  0
 30 31  1  0  0  0  0
 30 32  1  0  0  0  0
  2 33  1  0  0  0  0
 33 34  1  0  0  0  0
 33 35  1  0  0  0  0
 33 36  1  0  0  0  0
M  END
> <IC50(uM)>
0.13

> <Outcome>
1.0

> <BindingDB ID>
1020690

> <BindingDB MonomerID>
490616

> <BindingDB Ligand Name>
5-chloro-N-[2-(difluoromethyl)phenyl]-4-(3-oxo-5,6,7,8-tetrahydro[1,2,4]triazolo[4,3-a]pyridin-2(3H)-yl)-2-{[(2S)-1,1,1-trifluoropropan-2-yl]oxy}benzamide::US10968216, Example 284

> <Curation/DataSource>
US Patent

> <Article DOI>
?

> <PMID>
?

> <Patent Number>
US10968216

> <Authors>
Gradl, SN; Nguyen, D; Eis, K; Gunther, J; Stellfeld, T; Janzer, A; Christian, S; Mueller, T; Sheikh, SE; Zhou, HJ; Zhao, C; Sykes, DB; Ferrara, SJ; Liu, K; Herbert, SA; Merz, C; Niehues, M; Nising, CF; Schafer, M; Zimmermann, K; Knablein, J; Thede, K; Faupel, T

> <Link to Ligand in BindingDB>
http://www.bindingdb.org/bind/chemsearch/marvin/MolStructure.jsp?monomerid=490616

> <Link to Ligand-Target Pair in BindingDB>
http://www.bindingdb.org/jsp/dbsearch/PrimarySearch_ki.jsp?energyterm=kJ/mole&tag=r21&monomerid=490616&enzyme=Dihydroorotate+dehydrogenase&column=ki&startPg=0&Increment=50&submit=Search

> <PubChem CID>
134474175

> <PubChem SID>
447117342

$$$$

  Mrv2115 07222212352D          

 32 36  0  0  0  0            999 V2000
    4.0668    2.3479    0.0000 C   0  0  0  0  0  0  0  0  0  0  0  0
    3.3523    1.9354    0.0000 C   0  0  0  0  0  0  0  0  0  0  0  0
    3.3523    1.1104    0.0000 C   0  0  0  0  0  0  0  0  0  0  0  0
    2.6378    0.6979    0.0000 C   0  0  0  0  0  0  0  0  0  0  0  0
    2.6378   -0.1271    0.0000 C   0  0  0  0  0  0  0  0  0  0  0  0
    1.9233   -0.5396    0.0000 N   0  0  0  0  0  0  0  0  0  0  0  0
    3.3523   -0.5396    0.0000 O   0  0  0  0  0  0  0  0  0  0  0  0
    1.9233    1.1104    0.0000 C   0  0  0  0  0  0  0  0  0  0  0  0
    1.1387    0.8555    0.0000 N   0  0  0  0  0  0  0  0  0  0  0  0
    0.6538    1.5229    0.0000 C   0  0  0  0  0  0  0  0  0  0  0  0
   -0.1712    1.5229    0.0000 C   0  0  0  0  0  0  0  0  0  0  0  0
   -0.5837    0.8085    0.0000 C   0  0  0  0  0  0  0  0  0  0  0  0
   -1.4087    0.8085    0.0000 C   0  0  0  0  0  0  0  0  0  0  0  0
   -1.8212    1.5229    0.0000 C   0  0  0  0  0  0  0  0  0  0  0  0
   -2.6462    1.5229    0.0000 C   0  0  0  0  0  0  0  0  0  0  0  0
   -3.0587    0.8085    0.0000 C   0  0  0  0  0  0  0  0  0  0  0  0
   -3.8837    0.8085    0.0000 C   0  0  0  0  0  0  0  0  0  0  0  0
   -4.2962    1.5229    0.0000 C   0  0  0  0  0  0  0  0  0  0  0  0
   -5.1212    1.5229    0.0000 C   0  0  0  0  0  0  0  0  0  0  0  0
   -5.5337    0.8085    0.0000 O   0  0  0  0  0  0  0  0  0  0  0  0
   -5.5337    2.2374    0.0000 N   0  0  0  0  0  0  0  0  0  0  0  0
   -6.3542    2.3236    0.0000 C   0  0  0  0  0  0  0  0  0  0  0  0
   -6.5257    3.1306    0.0000 C   0  0  0  0  0  0  0  0  0  0  0  0
   -5.8112    3.5431    0.0000 C   0  0  0  0  0  0  0  0  0  0  0  0
   -5.1981    2.9911    0.0000 C   0  0  0  0  0  0  0  0  0  0  0  0
   -3.8837    2.2374    0.0000 N   0  0  0  0  0  0  0  0  0  0  0  0
   -3.0587    2.2374    0.0000 C   0  0  0  0  0  0  0  0  0  0  0  0
   -1.4087    2.2374    0.0000 C   0  0  0  0  0  0  0  0  0  0  0  0
   -0.5837    2.2374    0.0000 C   0  0  0  0  0  0  0  0  0  0  0  0
    1.1387    2.1904    0.0000 N   0  0  0  0  0  0  0  0  0  0  0  0
    1.9233    1.9354    0.0000 C   0  0  0  0  0  0  0  0  0  0  0  0
    2.6378    2.3479    0.0000 C   0  0  0  0  0  0  0  0  0  0  0  0
  1  2  1  0  0  0  0
  2  3  4  0  0  0  0
  3  4  4  0  0  0  0
  4  5  1  0  0  0  0
  5  6  1  0  0  0  0
  5  7  2  0  0  0  0
  4  8  4  0  0  0  0
  8  9  4  0  0  0  0
  9 10  4  0  0  0  0
 10 11  1  0  0  0  0
 11 12  4  0  0  0  0
 12 13  4  0  0  0  0
 13 14  4  0  0  0  0
 14 15  1  0  0  0  0
 15 16  4  0  0  0  0
 16 17  4  0  0  0  0
 17 18  4  0  0  0  0
 18 19  1  0  0  0  0
 19 20  2  0  0  0  0
 19 21  1  0  0  0  0
 21 22  1  0  0  0  0
 22 23  1  0  0  0  0
 23 24  1  0  0  0  0
 24 25  1  0  0  0  0
 21 25  1  0  0  0  0
 18 26  4  0  0  0  0
 26 27  4  0  0  0  0
 15 27  4  0  0  0  0
 14 28  4  0  0  0  0
 28 29  4  0  0  0  0
 11 29  4  0  0  0  0
 10 30  4  0  0  0  0
 30 31  4  0  0  0  0
  8 31  4  0  0  0  0
 31 32  4  0  0  0  0
  2 32  4  0  0  0  0
M  STY  1   1 DAT
M  SAL   1  1  30
M  SDT   1 MRV_IMPLICIT_H                                        
M  SDD   1     0.5304   -0.4125    DR    ALL  0       0  
M  SED   1 IMPL_H1
M  END
> <IC50(uM)>
37.0

> <Outcome>
0.0

> <BindingDB ID>
50358216

> <BindingDB MonomerID>
50096206

> <BindingDB Ligand Name>
CHEMBL3593983

> <Curation/DataSource>
ChEMBL

> <Article DOI>
10.1016/j.bmc.2015.05.051

> <PMID>
26088338

> <Patent Number>
?

> <Authors>
Abdullah, I; Chee, CF; Lee, YK; Thunuguntla, SS; Satish Reddy, K; Nellore, K; Antony, T; Verma, J; Mun, KW; Othman, S; Subramanya, H; Rahman, NA

> <Link to Ligand in BindingDB>
http://www.bindingdb.org/bind/chemsearch/marvin/MolStructure.jsp?monomerid=50096206

> <Link to Ligand-Target Pair in BindingDB>
http://www.bindingdb.org/jsp/dbsearch/PrimarySearch_ki.jsp?energyterm=kJ/mole&tag=r21&monomerid=50096206&enzyme=Dihydroorotate+dehydrogenase&column=ki&startPg=0&Increment=50&submit=Search

> <PubChem CID>
122182311

> <PubChem SID>
103993773

$$$$

  Mrv2115 07222212352D          

 37 41  0  0  0  0            999 V2000
   -1.8212    2.1599    0.0000 C   0  0  0  0  0  0  0  0  0  0  0  0
   -1.4087    1.4455    0.0000 C   0  0  0  0  0  0  0  0  0  0  0  0
   -1.8212    0.7310    0.0000 O   0  0  0  0  0  0  0  0  0  0  0  0
   -1.4087    0.0165    0.0000 C   0  0  0  0  0  0  0  0  0  0  0  0
   -0.5837    0.0165    0.0000 C   0  0  0  0  0  0  0  0  0  0  0  0
   -0.1712   -0.6979    0.0000 C   0  0  0  0  0  0  0  0  0  0  0  0
    0.6538   -0.6979    0.0000 N   0  0  0  0  0  0  0  0  0  0  0  0
    1.1387   -0.0305    0.0000 N   0  0  0  0  0  0  0  0  0  0  0  0
    1.9233   -0.2854    0.0000 C   0  0  0  0  0  0  0  0  0  0  0  0
    2.6378    0.1271    0.0000 C   0  0  0  0  0  0  0  0  0  0  0  0
    3.3523   -0.2854    0.0000 C   0  0  0  0  0  0  0  0  0  0  0  0
    3.3523   -1.1104    0.0000 C   0  0  0  0  0  0  0  0  0  0  0  0
    2.6378   -1.5229    0.0000 C   0  0  0  0  0  0  0  0  0  0  0  0
    1.9233   -1.1104    0.0000 N   0  0  0  0  0  0  0  0  0  0  0  0
    1.1387   -1.3654    0.0000 C   0  0  0  0  0  0  0  0  0  0  0  0
    0.8838   -2.1500    0.0000 O   0  0  0  0  0  0  0  0  0  0  0  0
   -0.5837   -1.4124    0.0000 C   0  0  0  0  0  0  0  0  0  0  0  0
   -0.1712   -2.1269    0.0000 F   0  0  0  0  0  0  0  0  0  0  0  0
   -1.4087   -1.4124    0.0000 C   0  0  0  0  0  0  0  0  0  0  0  0
   -1.8212   -0.6979    0.0000 C   0  0  0  0  0  0  0  0  0  0  0  0
   -2.6462   -0.6979    0.0000 C   0  0  0  0  0  0  0  0  0  0  0  0
   -3.0587    0.0165    0.0000 O   0  0  0  0  0  0  0  0  0  0  0  0
   -3.0587   -1.4124    0.0000 N   0  0  0  0  0  0  0  0  0  0  0  0
   -3.8837   -1.4124    0.0000 C   0  0  0  0  0  0  0  0  0  0  0  0
   -4.2962   -2.1269    0.0000 C   0  0  0  0  0  0  0  0  0  0  0  0
   -3.8837   -2.8414    0.0000 F   0  0  0  0  0  0  0  0  0  0  0  0
   -5.1212   -2.1269    0.0000 C   0  0  0  0  0  0  0  0  0  0  0  0
   -5.5337   -1.4124    0.0000 C   0  0  0  0  0  0  0  0  0  0  0  0
   -5.1212   -0.6979    0.0000 C   0  0  0  0  0  0  0  0  0  0  0  0
   -4.2962   -0.6979    0.0000 C   0  0  0  0  0  0  0  0  0  0  0  0
   -3.8837    0.0165    0.0000 F   0  0  0  0  0  0  0  0  0  0  0  0
   -0.5837    1.4455    0.0000 C   0  0  0  0  0  0  0  0  0  0  0  0
   -0.1712    2.1599    0.0000 C   0  0  0  0  0  0  0  0  0  0  0  0
    0.6538    2.1599    0.0000 C   0  0  0  0  0  0  0  0  0  0  0  0
    1.0663    1.4455    0.0000 C   0  0  0  0  0  0  0  0  0  0  0  0
    0.6538    0.7310    0.0000 C   0  0  0  0  0  0  0  0  0  0  0  0
   -0.1712    0.7310    0.0000 C   0  0  0  0  0  0  0  0  0  0  0  0
  1  2  1  0  0  0  0
  2  3  1  0  0  0  0
  3  4  1  0  0  0  0
  4  5  4  0  0  0  0
  5  6  4  0  0  0  0
  6  7  1  0  0  0  0
  7  8  4  0  0  0  0
  8  9  4  0  0  0  0
  9 10  4  0  0  0  0
 10 11  4  0  0  0  0
 11 12  4  0  0  0  0
 12 13  4  0  0  0  0
 13 14  4  0  0  0  0
  9 14  4  0  0  0  0
 14 15  4  0  0  0  0
  7 15  4  0  0  0  0
 15 16  2  0  0  0  0
  6 17  4  0  0  0  0
 17 18  1  0  0  0  0
 17 19  4  0  0  0  0
 19 20  4  0  0  0  0
  4 20  4  0  0  0  0
 20 21  1  0  0  0  0
 21 22  2  0  0  0  0
 21 23  1  0  0  0  0
 23 24  1  0  0  0  0
 24 25  4  0  0  0  0
 25 26  1  0  0  0  0
 25 27  4  0  0  0  0
 27 28  4  0  0  0  0
 28 29  4  0  0  0  0
 29 30  4  0  0  0  0
 24 30  4  0  0  0  0
 30 31  1  0  0  0  0
  2 32  1  0  0  0  0
 32 33  4  0  0  0  0
 33 34  4  0  0  0  0
 34 35  4  0  0  0  0
 35 36  4  0  0  0  0
 36 37  4  0  0  0  0
 32 37  4  0  0  0  0
M  END
> <IC50(uM)>
0.0875

> <Outcome>
1.0

> <BindingDB ID>
1020622; 1020621

> <BindingDB MonomerID>
490554

> <BindingDB Ligand Name>
N-(2,6-difluorophenyl)-5-fluoro-4-(3-oxo[1,2,4]triazolo[4,3-a]pyridin-2(3H)-yl)-2-[(1S)-1-phenylethoxy]benzamide::US10968216, Example 222

> <Curation/DataSource>
US Patent

> <Article DOI>
?

> <PMID>
?

> <Patent Number>
US10968216

> <Authors>
Gradl, SN; Nguyen, D; Eis, K; Gunther, J; Stellfeld, T; Janzer, A; Christian, S; Mueller, T; Sheikh, SE; Zhou, HJ; Zhao, C; Sykes, DB; Ferrara, SJ; Liu, K; Herbert, SA; Merz, C; Niehues, M; Nising, CF; Schafer, M; Zimmermann, K; Knablein, J; Thede, K; Faupel, T

> <Link to Ligand in BindingDB>
http://www.bindingdb.org/bind/chemsearch/marvin/MolStructure.jsp?monomerid=490554

> <Link to Ligand-Target Pair in BindingDB>
http://www.bindingdb.org/jsp/dbsearch/PrimarySearch_ki.jsp?energyterm=kJ/mole&tag=r21&monomerid=490554&enzyme=Dihydroorotate+dehydrogenase&column=ki&startPg=0&Increment=50&submit=Search

> <PubChem CID>
134474531

> <PubChem SID>
447117280

$$$$

  Mrv2115 07222212352D          

 28 30  0  0  0  0            999 V2000
   -3.8871   -5.0906    0.0000 C   0  0  0  0  0  0  0  0  0  0  0  0
   -3.1727   -4.6781    0.0000 C   0  0  0  0  0  0  0  0  0  0  0  0
   -2.4582   -5.0906    0.0000 C   0  0  0  0  0  0  0  0  0  0  0  0
   -1.7437   -4.6781    0.0000 O   0  0  0  0  0  0  0  0  0  0  0  0
   -1.0293   -5.0906    0.0000 C   0  0  0  0  0  0  0  0  0  0  0  0
   -1.0293   -5.9156    0.0000 O   0  0  0  0  0  0  0  0  0  0  0  0
   -0.3148   -4.6781    0.0000 C   0  0  0  0  0  0  0  0  0  0  0  0
   -0.3148   -3.8531    0.0000 C   0  0  0  0  0  0  0  0  0  0  0  0
    0.3997   -3.4406    0.0000 C   0  0  0  0  0  0  0  0  0  0  0  0
    1.1142   -3.8531    0.0000 C   0  0  0  0  0  0  0  0  0  0  0  0
    1.1142   -4.6781    0.0000 C   0  0  0  0  0  0  0  0  0  0  0  0
    0.3997   -5.0906    0.0000 C   0  0  0  0  0  0  0  0  0  0  0  0
    0.3997   -5.9156    0.0000 C   0  0  0  0  0  0  0  0  0  0  0  0
   -0.3148   -6.3281    0.0000 N   0  0  0  0  0  0  0  0  0  0  0  0
   -0.3148   -7.1531    0.0000 N   0  0  0  0  0  0  0  0  0  0  0  0
   -1.0293   -7.5656    0.0000 C   0  0  0  0  0  0  0  0  0  0  0  0
    0.3997   -7.5656    0.0000 C   0  0  0  0  0  0  0  0  0  0  0  0
    1.1534   -7.2300    0.0000 N   0  0  0  0  0  0  0  0  0  0  0  0
    1.7054   -7.8431    0.0000 C   0  0  0  0  0  0  0  0  0  0  0  0
    2.5259   -7.7569    0.0000 C   0  0  0  0  0  0  0  0  0  0  0  0
    2.8614   -7.0032    0.0000 C   0  0  0  0  0  0  0  0  0  0  0  0
    3.6819   -6.9170    0.0000 C   0  0  0  0  0  0  0  0  0  0  0  0
    4.1668   -7.5844    0.0000 C   0  0  0  0  0  0  0  0  0  0  0  0
    3.8313   -8.3381    0.0000 C   0  0  0  0  0  0  0  0  0  0  0  0
    3.0108   -8.4243    0.0000 C   0  0  0  0  0  0  0  0  0  0  0  0
    2.6752   -9.1780    0.0000 Cl  0  0  0  0  0  0  0  0  0  0  0  0
    1.2929   -8.5576    0.0000 C   0  0  0  0  0  0  0  0  0  0  0  0
    0.4859   -8.3860    0.0000 S   0  0  0  0  0  0  0  0  0  0  0  0
  1  2  1  0  0  0  0
  2  3  1  0  0  0  0
  3  4  1  0  0  0  0
  4  5  1  0  0  0  0
  5  6  2  0  0  0  0
  5  7  1  0  0  0  0
  7  8  4  0  0  0  0
  8  9  4  0  0  0  0
  9 10  4  0  0  0  0
 10 11  4  0  0  0  0
 11 12  4  0  0  0  0
  7 12  4  0  0  0  0
 12 13  1  0  0  0  0
 13 14  2  0  0  0  0
 14 15  1  0  0  0  0
 15 16  1  0  0  0  0
 15 17  1  0  0  0  0
 17 18  4  0  0  0  0
 18 19  4  0  0  0  0
 19 20  1  0  0  0  0
 20 21  4  0  0  0  0
 21 22  4  0  0  0  0
 22 23  4  0  0  0  0
 23 24  4  0  0  0  0
 24 25  4  0  0  0  0
 20 25  4  0  0  0  0
 25 26  1  0  0  0  0
 19 27  4  0  0  0  0
 27 28  4  0  0  0  0
 17 28  4  0  0  0  0
M  END
> <IC50(uM)>
1.956

> <Outcome>
0.0

> <BindingDB ID>
1001149

> <BindingDB MonomerID>
482835

> <BindingDB Ligand Name>
US10919869, No.  B2

> <Curation/DataSource>
US Patent

> <Article DOI>
?

> <PMID>
?

> <Patent Number>
US10919869

> <Authors>
Li, H; Xu, Y; Wang, R; Zhao, Z; Song, W; Xu, L

> <Link to Ligand in BindingDB>
http://www.bindingdb.org/bind/chemsearch/marvin/MolStructure.jsp?monomerid=482835

> <Link to Ligand-Target Pair in BindingDB>
http://www.bindingdb.org/jsp/dbsearch/PrimarySearch_ki.jsp?energyterm=kJ/mole&tag=r21&monomerid=482835&enzyme=Dihydroorotate+dehydrogenase&column=ki&startPg=0&Increment=50&submit=Search

> <PubChem CID>
132157956

> <PubChem SID>
443551975

$$$$

  Mrv2115 07222212352D          

 19 21  0  0  0  0            999 V2000
    4.0668    2.3479    0.0000 C   0  0  0  0  0  0  0  0  0  0  0  0
    3.3523    1.9354    0.0000 C   0  0  0  0  0  0  0  0  0  0  0  0
    3.3523    1.1104    0.0000 C   0  0  0  0  0  0  0  0  0  0  0  0
    2.6378    0.6979    0.0000 C   0  0  0  0  0  0  0  0  0  0  0  0
    2.6378   -0.1271    0.0000 N   0  0  0  0  0  0  0  0  0  0  0  0
    1.9233   -0.5396    0.0000 C   0  0  0  0  0  0  0  0  0  0  0  0
    1.9233   -1.3646    0.0000 C   0  0  0  0  0  0  0  0  0  0  0  0
    1.2089   -1.7771    0.0000 C   0  0  0  0  0  0  0  0  0  0  0  0
    0.4944   -1.3646    0.0000 C   0  0  0  0  0  0  0  0  0  0  0  0
   -0.2201   -1.7771    0.0000 C   0  0  0  0  0  0  0  0  0  0  0  0
    0.4944   -0.5396    0.0000 C   0  0  0  0  0  0  0  0  0  0  0  0
   -0.2201   -0.1271    0.0000 F   0  0  0  0  0  0  0  0  0  0  0  0
    1.2089   -0.1271    0.0000 C   0  0  0  0  0  0  0  0  0  0  0  0
    1.9233    1.1104    0.0000 N   0  0  0  0  0  0  0  0  0  0  0  0
    1.1387    0.8555    0.0000 N   0  0  0  0  0  0  0  0  0  0  0  0
    0.6538    1.5229    0.0000 C   0  0  0  0  0  0  0  0  0  0  0  0
    1.1387    2.1904    0.0000 N   0  0  0  0  0  0  0  0  0  0  0  0
    1.9233    1.9354    0.0000 C   0  0  0  0  0  0  0  0  0  0  0  0
    2.6378    2.3479    0.0000 N   0  0  0  0  0  0  0  0  0  0  0  0
  1  2  1  0  0  0  0
  2  3  4  0  0  0  0
  3  4  4  0  0  0  0
  4  5  1  0  0  0  0
  5  6  1  0  0  0  0
  6  7  4  0  0  0  0
  7  8  4  0  0  0  0
  8  9  4  0  0  0  0
  9 10  1  0  0  0  0
  9 11  4  0  0  0  0
 11 12  1  0  0  0  0
 11 13  4  0  0  0  0
  6 13  4  0  0  0  0
  4 14  4  0  0  0  0
 14 15  4  0  0  0  0
 15 16  4  0  0  0  0
 16 17  4  0  0  0  0
 17 18  4  0  0  0  0
 14 18  4  0  0  0  0
 18 19  4  0  0  0  0
  2 19  4  0  0  0  0
M  END
> <IC50(uM)>
100.0

> <Outcome>
0.0

> <BindingDB ID>
52454

> <BindingDB MonomerID>
28842

> <BindingDB Ligand Name>
N-(3-fluoro-4-methylphenyl)-5-methyl-[1,2,4]triazolo[1,5-a]pyrimidin-7-amine::triazolopyrimidine-based compound, DSM83

> <Curation/DataSource>
Curated from the literature by BindingDB

> <Article DOI>
10.1021/jm801343r

> <PMID>
19296651

> <Patent Number>
?

> <Authors>
Gujjar, R; Marwaha, A; El Mazouni, F; White, J; White, KL; Creason, S; Shackleford, DM; Baldwin, J; Charman, WN; Buckner, FS; Charman, S; Rathod, PK; Phillips, MA

> <Link to Ligand in BindingDB>
http://www.bindingdb.org/bind/chemsearch/marvin/MolStructure.jsp?monomerid=28842

> <Link to Ligand-Target Pair in BindingDB>
http://www.bindingdb.org/jsp/dbsearch/PrimarySearch_ki.jsp?energyterm=kJ/mole&tag=r21&monomerid=28842&enzyme=Dihydroorotate+Dehydrogenase+%28DHODH%29&column=ki&startPg=0&Increment=50&submit=Search

> <PubChem CID>
653193

> <PubChem SID>
58098030

$$$$

  Mrv2115 07222212352D          

 22 25  0  0  0  0            999 V2000
    1.9457   -4.4410    0.0000 O   0  0  0  0  0  0  0  0  0  0  0  0
    1.1387   -4.2695    0.0000 C   0  0  0  0  0  0  0  0  0  0  0  0
    0.5867   -4.8826    0.0000 N   0  0  0  0  0  0  0  0  0  0  0  0
    0.8416   -5.6672    0.0000 C   0  0  0  0  0  0  0  0  0  0  0  0
    1.4547   -6.2193    0.0000 C   0  0  0  0  0  0  0  0  0  0  0  0
    0.6701   -6.4742    0.0000 C   0  0  0  0  0  0  0  0  0  0  0  0
    0.8838   -3.4849    0.0000 C   0  0  0  0  0  0  0  0  0  0  0  0
    0.0992   -3.2299    0.0000 C   0  0  0  0  0  0  0  0  0  0  0  0
    0.0992   -2.4049    0.0000 C   0  0  0  0  0  0  0  0  0  0  0  0
    0.8838   -2.1500    0.0000 C   0  0  0  0  0  0  0  0  0  0  0  0
    1.1387   -1.3654    0.0000 N   0  0  0  0  0  0  0  0  0  0  0  0
    0.6538   -0.6979    0.0000 C   0  0  0  0  0  0  0  0  0  0  0  0
    1.1387   -0.0305    0.0000 N   0  0  0  0  0  0  0  0  0  0  0  0
    1.9233   -0.2854    0.0000 C   0  0  0  0  0  0  0  0  0  0  0  0
    2.6378    0.1271    0.0000 C   0  0  0  0  0  0  0  0  0  0  0  0
    2.6378    0.9521    0.0000 Cl  0  0  0  0  0  0  0  0  0  0  0  0
    3.3523   -0.2854    0.0000 C   0  0  0  0  0  0  0  0  0  0  0  0
    3.3523   -1.1104    0.0000 C   0  0  0  0  0  0  0  0  0  0  0  0
    4.0668   -1.5229    0.0000 F   0  0  0  0  0  0  0  0  0  0  0  0
    2.6378   -1.5229    0.0000 C   0  0  0  0  0  0  0  0  0  0  0  0
    1.9233   -1.1104    0.0000 C   0  0  0  0  0  0  0  0  0  0  0  0
    1.3687   -2.8174    0.0000 S   0  0  0  0  0  0  0  0  0  0  0  0
  1  2  2  0  0  0  0
  2  3  1  0  0  0  0
  3  4  1  0  0  0  0
  4  5  1  0  0  0  0
  5  6  1  0  0  0  0
  4  6  1  0  0  0  0
  2  7  1  0  0  0  0
  7  8  4  0  0  0  0
  8  9  4  0  0  0  0
  9 10  4  0  0  0  0
 10 11  1  0  0  0  0
 11 12  4  0  0  0  0
 12 13  4  0  0  0  0
 13 14  4  0  0  0  0
 14 15  4  0  0  0  0
 15 16  1  0  0  0  0
 15 17  4  0  0  0  0
 17 18  4  0  0  0  0
 18 19  1  0  0  0  0
 18 20  4  0  0  0  0
 20 21  4  0  0  0  0
 14 21  4  0  0  0  0
 11 21  4  0  0  0  0
 10 22  4  0  0  0  0
  7 22  4  0  0  0  0
M  END
> <IC50(uM)>
5.6

> <Outcome>
0.0

> <BindingDB ID>
50924671

> <BindingDB MonomerID>
50379152

> <BindingDB Ligand Name>
CHEMBL2012963

> <Curation/DataSource>
ChEMBL

> <Article DOI>
10.1021/ml200143c

> <PMID>
24900364

> <Patent Number>
?

> <Authors>
Skerlj, RT; Bastos, CM; Booker, ML; Kramer, ML; Barker, RH; Celatka, CA; Munoz, B; Sidhu, AB; Cortese, JF; Wittlin, S; Papastogiannidis, P; Angulo-Barturen, I; Jimenez-Diaz, MB; Sybertz, E

> <Link to Ligand in BindingDB>
http://www.bindingdb.org/bind/chemsearch/marvin/MolStructure.jsp?monomerid=50379152

> <Link to Ligand-Target Pair in BindingDB>
http://www.bindingdb.org/jsp/dbsearch/PrimarySearch_ki.jsp?energyterm=kJ/mole&tag=r21&monomerid=50379152&enzyme=Dihydroorotate+dehydrogenase&column=ki&startPg=0&Increment=50&submit=Search

> <PubChem CID>
70687453

> <PubChem SID>
160858235

$$$$

  Mrv2115 07222212352D          

 22 24  0  0  0  0            999 V2000
   -4.8918    1.9041    0.0000 C   0  0  0  0  0  0  0  0  0  0  0  0
   -4.2787    1.3521    0.0000 C   0  0  0  0  0  0  0  0  0  0  0  0
   -3.4941    1.6070    0.0000 O   0  0  0  0  0  0  0  0  0  0  0  0
   -2.8810    1.0550    0.0000 C   0  0  0  0  0  0  0  0  0  0  0  0
   -3.0525    0.2480    0.0000 O   0  0  0  0  0  0  0  0  0  0  0  0
   -2.0964    1.3099    0.0000 C   0  0  0  0  0  0  0  0  0  0  0  0
   -1.8414    2.0945    0.0000 C   0  0  0  0  0  0  0  0  0  0  0  0
   -2.3264    2.7620    0.0000 O   0  0  0  0  0  0  0  0  0  0  0  0
   -1.0164    2.0945    0.0000 C   0  0  0  0  0  0  0  0  0  0  0  0
   -0.7615    1.3099    0.0000 S   0  0  0  0  0  0  0  0  0  0  0  0
   -1.4289    0.8250    0.0000 C   0  0  0  0  0  0  0  0  0  0  0  0
   -1.4289    0.0000    0.0000 N   0  0  0  0  0  0  0  0  0  0  0  0
   -0.7145   -0.4125    0.0000 C   0  0  0  0  0  0  0  0  0  0  0  0
   -0.7145   -1.2375    0.0000 C   0  0  0  0  0  0  0  0  0  0  0  0
    0.0000   -1.6500    0.0000 C   0  0  0  0  0  0  0  0  0  0  0  0
    0.7145   -1.2375    0.0000 C   0  0  0  0  0  0  0  0  0  0  0  0
    0.7145   -0.4125    0.0000 C   0  0  0  0  0  0  0  0  0  0  0  0
    0.0000   -0.0000    0.0000 C   0  0  0  0  0  0  0  0  0  0  0  0
    1.4289   -0.0000    0.0000 C   0  0  0  0  0  0  0  0  0  0  0  0
    2.1434   -0.4125    0.0000 C   0  0  0  0  0  0  0  0  0  0  0  0
    2.1434   -1.2375    0.0000 C   0  0  0  0  0  0  0  0  0  0  0  0
    1.4289   -1.6500    0.0000 C   0  0  0  0  0  0  0  0  0  0  0  0
  1  2  1  0  0  0  0
  2  3  1  0  0  0  0
  3  4  1  0  0  0  0
  4  5  2  0  0  0  0
  4  6  1  0  0  0  0
  6  7  4  0  0  0  0
  7  8  1  0  0  0  0
  7  9  4  0  0  0  0
  9 10  4  0  0  0  0
 10 11  4  0  0  0  0
  6 11  4  0  0  0  0
 11 12  1  0  0  0  0
 12 13  1  0  0  0  0
 13 14  4  0  0  0  0
 14 15  4  0  0  0  0
 15 16  4  0  0  0  0
 16 17  4  0  0  0  0
 17 18  4  0  0  0  0
 13 18  4  0  0  0  0
 17 19  1  0  0  0  0
 19 20  1  0  0  0  0
 20 21  1  0  0  0  0
 21 22  1  0  0  0  0
 16 22  1  0  0  0  0
M  END
> <IC50(uM)>
11.982

> <Outcome>
0.0

> <BindingDB ID>
51079172

> <BindingDB MonomerID>
50441280

> <BindingDB Ligand Name>
CHEMBL2431513

> <Curation/DataSource>
ChEMBL

> <Article DOI>
10.1021/jm400938g

> <PMID>
24073986

> <Patent Number>
?

> <Authors>
Xu, M; Zhu, J; Diao, Y; Zhou, H; Ren, X; Sun, D; Huang, J; Han, D; Zhao, Z; Zhu, L; Xu, Y; Li, H

> <Link to Ligand in BindingDB>
http://www.bindingdb.org/bind/chemsearch/marvin/MolStructure.jsp?monomerid=50441280

> <Link to Ligand-Target Pair in BindingDB>
http://www.bindingdb.org/jsp/dbsearch/PrimarySearch_ki.jsp?energyterm=kJ/mole&tag=r21&monomerid=50441280&enzyme=Dihydroorotate+dehydrogenase&column=ki&startPg=0&Increment=50&submit=Search

> <PubChem CID>
91898841

> <PubChem SID>
175453597

$$$$

  Mrv2115 07222212352D          

 21 23  0  0  0  0            999 V2000
    4.0668    2.3479    0.0000 C   0  0  0  0  0  0  0  0  0  0  0  0
    3.3523    1.9354    0.0000 C   0  0  0  0  0  0  0  0  0  0  0  0
    3.3523    1.1104    0.0000 C   0  0  0  0  0  0  0  0  0  0  0  0
    2.6378    0.6979    0.0000 C   0  0  0  0  0  0  0  0  0  0  0  0
    2.6378   -0.1271    0.0000 C   0  0  0  0  0  0  0  0  0  0  0  0
    1.9233   -0.5396    0.0000 O   0  0  0  0  0  0  0  0  0  0  0  0
    3.3523   -0.5396    0.0000 O   0  0  0  0  0  0  0  0  0  0  0  0
    1.9233    1.1104    0.0000 C   0  0  0  0  0  0  0  0  0  0  0  0
    1.1387    0.8555    0.0000 N   0  0  0  0  0  0  0  0  0  0  0  0
    0.6538    1.5229    0.0000 C   0  0  0  0  0  0  0  0  0  0  0  0
   -0.1712    1.5229    0.0000 C   0  0  0  0  0  0  0  0  0  0  0  0
   -0.9962    1.5229    0.0000 C   0  0  0  0  0  0  0  0  0  0  0  0
   -1.8212    1.5229    0.0000 C   0  0  0  0  0  0  0  0  0  0  0  0
   -2.2337    0.8085    0.0000 C   0  0  0  0  0  0  0  0  0  0  0  0
   -3.0587    0.8085    0.0000 C   0  0  0  0  0  0  0  0  0  0  0  0
   -3.4712    1.5229    0.0000 C   0  0  0  0  0  0  0  0  0  0  0  0
   -3.0587    2.2374    0.0000 C   0  0  0  0  0  0  0  0  0  0  0  0
   -2.2337    2.2374    0.0000 C   0  0  0  0  0  0  0  0  0  0  0  0
    1.1387    2.1904    0.0000 N   0  0  0  0  0  0  0  0  0  0  0  0
    1.9233    1.9354    0.0000 C   0  0  0  0  0  0  0  0  0  0  0  0
    2.6378    2.3479    0.0000 C   0  0  0  0  0  0  0  0  0  0  0  0
  1  2  1  0  0  0  0
  2  3  4  0  0  0  0
  3  4  4  0  0  0  0
  4  5  1  0  0  0  0
  5  6  2  0  0  0  0
  5  7  1  0  0  0  0
  4  8  4  0  0  0  0
  8  9  4  0  0  0  0
  9 10  4  0  0  0  0
 10 11  1  0  0  0  0
 11 12  3  0  0  0  0
 12 13  1  0  0  0  0
 13 14  4  0  0  0  0
 14 15  4  0  0  0  0
 15 16  4  0  0  0  0
 16 17  4  0  0  0  0
 17 18  4  0  0  0  0
 13 18  4  0  0  0  0
 10 19  4  0  0  0  0
 19 20  4  0  0  0  0
  8 20  4  0  0  0  0
 20 21  4  0  0  0  0
  2 21  4  0  0  0  0
M  STY  1   1 DAT
M  SAL   1  1  19
M  SDT   1 MRV_IMPLICIT_H                                        
M  SDD   1     0.5304   -0.4125    DR    ALL  0       0  
M  SED   1 IMPL_H1
M  END
> <IC50(uM)>
11.41

> <Outcome>
0.0

> <BindingDB ID>
297786

> <BindingDB MonomerID>
155442

> <BindingDB Ligand Name>
US9006454, I84

> <Curation/DataSource>
US Patent

> <Article DOI>
?

> <PMID>
?

> <Patent Number>
US9006454

> <Authors>
Thunuguntla, SS; Subramanya, H; Kunnam, SR; Sanivaru Vijay, SR; Bingi, C; Kusanur, R; Schwarz, M; Arlt, M

> <Link to Ligand in BindingDB>
http://www.bindingdb.org/bind/chemsearch/marvin/MolStructure.jsp?monomerid=155442

> <Link to Ligand-Target Pair in BindingDB>
http://www.bindingdb.org/jsp/dbsearch/PrimarySearch_ki.jsp?energyterm=kJ/mole&tag=r21&monomerid=155442&enzyme=Dihydroorotate+dehydrogenase&column=ki&startPg=0&Increment=50&submit=Search

> <PubChem CID>
46947572

> <PubChem SID>
253658379

$$$$

  Mrv2115 07222212352D          

 20 22  0  0  0  0            999 V2000
    4.0668    2.3479    0.0000 C   0  0  0  0  0  0  0  0  0  0  0  0
    3.3523    1.9354    0.0000 C   0  0  0  0  0  0  0  0  0  0  0  0
    3.3523    1.1104    0.0000 C   0  0  0  0  0  0  0  0  0  0  0  0
    2.6378    0.6979    0.0000 C   0  0  0  0  0  0  0  0  0  0  0  0
    2.6378   -0.1271    0.0000 O   0  0  0  0  0  0  0  0  0  0  0  0
    1.9233    1.1104    0.0000 N   0  0  0  0  0  0  0  0  0  0  0  0
    1.1387    0.8555    0.0000 N   0  0  0  0  0  0  0  0  0  0  0  0
    0.6538    1.5229    0.0000 C   0  0  0  0  0  0  0  0  0  0  0  0
   -0.1712    1.5229    0.0000 S   0  0  0  0  0  0  0  0  0  0  0  0
   -0.5837    0.8085    0.0000 C   0  0  0  0  0  0  0  0  0  0  0  0
   -1.4087    0.8085    0.0000 C   0  0  0  0  0  0  0  0  0  0  0  0
   -1.8212    0.0940    0.0000 C   0  0  0  0  0  0  0  0  0  0  0  0
   -2.6462    0.0940    0.0000 C   0  0  0  0  0  0  0  0  0  0  0  0
   -3.0587    0.8085    0.0000 C   0  0  0  0  0  0  0  0  0  0  0  0
   -2.6462    1.5229    0.0000 C   0  0  0  0  0  0  0  0  0  0  0  0
   -3.0587    2.2374    0.0000 Cl  0  0  0  0  0  0  0  0  0  0  0  0
   -1.8212    1.5229    0.0000 C   0  0  0  0  0  0  0  0  0  0  0  0
    1.1387    2.1904    0.0000 N   0  0  0  0  0  0  0  0  0  0  0  0
    1.9233    1.9354    0.0000 C   0  0  0  0  0  0  0  0  0  0  0  0
    2.6378    2.3479    0.0000 N   0  0  0  0  0  0  0  0  0  0  0  0
  1  2  1  0  0  0  0
  2  3  4  0  0  0  0
  3  4  4  0  0  0  0
  4  5  2  0  0  0  0
  4  6  4  0  0  0  0
  6  7  4  0  0  0  0
  7  8  4  0  0  0  0
  8  9  1  0  0  0  0
  9 10  1  0  0  0  0
 10 11  1  0  0  0  0
 11 12  4  0  0  0  0
 12 13  4  0  0  0  0
 13 14  4  0  0  0  0
 14 15  4  0  0  0  0
 15 16  1  0  0  0  0
 15 17  4  0  0  0  0
 11 17  4  0  0  0  0
  8 18  4  0  0  0  0
 18 19  4  0  0  0  0
  6 19  4  0  0  0  0
 19 20  4  0  0  0  0
  2 20  4  0  0  0  0
M  STY  1   1 DAT
M  SAL   1  1   7
M  SDT   1 MRV_IMPLICIT_H                                        
M  SDD   1     0.5304   -0.4125    DR    ALL  0       0  
M  SED   1 IMPL_H1
M  END
> <IC50(uM)>
29.0

> <Outcome>
0.0

> <BindingDB ID>
50970254

> <BindingDB MonomerID>
50397827

> <BindingDB Ligand Name>
CHEMBL2178513

> <Curation/DataSource>
ChEMBL

> <Article DOI>
10.1021/jm300157n

> <PMID>
22621375

> <Patent Number>
?

> <Authors>
Bedingfield, PT; Cowen, D; Acklam, P; Cunningham, F; Parsons, MR; McConkey, GA; Fishwick, CW; Johnson, AP

> <Link to Ligand in BindingDB>
http://www.bindingdb.org/bind/chemsearch/marvin/MolStructure.jsp?monomerid=50397827

> <Link to Ligand-Target Pair in BindingDB>
http://www.bindingdb.org/jsp/dbsearch/PrimarySearch_ki.jsp?energyterm=kJ/mole&tag=r21&monomerid=50397827&enzyme=Dihydroorotate+dehydrogenase&column=ki&startPg=0&Increment=50&submit=Search

> <PubChem CID>
60166357

> <PubChem SID>
163346851

$$$$

  Mrv2115 07222212352D          

 35 37  0  0  0  0            999 V2000
    2.1434   -3.7125    0.0000 C   0  0  0  0  0  0  0  0  0  0  0  0
    1.4289   -4.1250    0.0000 C   0  0  0  0  0  0  0  0  0  0  0  0
    1.4289   -4.9500    0.0000 N   0  0  0  0  0  0  0  0  0  0  0  0
    0.7615   -5.4349    0.0000 C   0  0  0  0  0  0  0  0  0  0  0  0
   -0.0231   -5.1800    0.0000 C   0  0  0  0  0  0  0  0  0  0  0  0
   -0.1946   -4.3730    0.0000 O   0  0  0  0  0  0  0  0  0  0  0  0
    1.0164   -6.2195    0.0000 N   0  0  0  0  0  0  0  0  0  0  0  0
    1.8414   -6.2195    0.0000 N   0  0  0  0  0  0  0  0  0  0  0  0
    2.3264   -6.8870    0.0000 C   0  0  0  0  0  0  0  0  0  0  0  0
    3.1468   -6.8007    0.0000 C   0  0  0  0  0  0  0  0  0  0  0  0
    3.6318   -7.4682    0.0000 C   0  0  0  0  0  0  0  0  0  0  0  0
    4.4522   -7.3820    0.0000 O   0  0  0  0  0  0  0  0  0  0  0  0
    4.7878   -6.6283    0.0000 C   0  0  0  0  0  0  0  0  0  0  0  0
    4.3029   -5.9608    0.0000 C   0  0  0  0  0  0  0  0  0  0  0  0
    5.6083   -6.5420    0.0000 C   0  0  0  0  0  0  0  0  0  0  0  0
    5.6945   -7.3625    0.0000 F   0  0  0  0  0  0  0  0  0  0  0  0
    5.5221   -5.7216    0.0000 F   0  0  0  0  0  0  0  0  0  0  0  0
    6.4288   -6.4558    0.0000 F   0  0  0  0  0  0  0  0  0  0  0  0
    3.2962   -8.2219    0.0000 C   0  0  0  0  0  0  0  0  0  0  0  0
    3.7811   -8.8893    0.0000 C   0  0  0  0  0  0  0  0  0  0  0  0
    3.4456   -9.6430    0.0000 O   0  0  0  0  0  0  0  0  0  0  0  0
    4.6016   -8.8031    0.0000 N   0  0  0  0  0  0  0  0  0  0  0  0
    5.0865   -9.4705    0.0000 C   0  0  0  0  0  0  0  0  0  0  0  0
    5.9070   -9.3843    0.0000 C   0  0  0  0  0  0  0  0  0  0  0  0
    6.2426   -8.6306    0.0000 F   0  0  0  0  0  0  0  0  0  0  0  0
    6.3919  -10.0517    0.0000 C   0  0  0  0  0  0  0  0  0  0  0  0
    6.0564  -10.8054    0.0000 C   0  0  0  0  0  0  0  0  0  0  0  0
    5.2359  -10.8916    0.0000 C   0  0  0  0  0  0  0  0  0  0  0  0
    4.7510  -10.2242    0.0000 C   0  0  0  0  0  0  0  0  0  0  0  0
    3.9305  -10.3104    0.0000 F   0  0  0  0  0  0  0  0  0  0  0  0
    2.4757   -8.3081    0.0000 C   0  0  0  0  0  0  0  0  0  0  0  0
    1.9908   -7.6407    0.0000 C   0  0  0  0  0  0  0  0  0  0  0  0
    1.1703   -7.7269    0.0000 F   0  0  0  0  0  0  0  0  0  0  0  0
    2.0964   -5.4349    0.0000 C   0  0  0  0  0  0  0  0  0  0  0  0
    2.8810   -5.1800    0.0000 O   0  0  0  0  0  0  0  0  0  0  0  0
  1  2  1  0  0  0  0
  2  3  1  0  0  0  0
  3  4  4  0  0  0  0
  4  5  1  0  0  0  0
  5  6  1  0  0  0  0
  4  7  4  0  0  0  0
  7  8  4  0  0  0  0
  8  9  1  0  0  0  0
  9 10  4  0  0  0  0
 10 11  4  0  0  0  0
 11 12  1  0  0  0  0
 12 13  1  0  0  0  0
 13 14  1  0  0  0  0
 13 15  1  0  0  0  0
 15 16  1  0  0  0  0
 15 17  1  0  0  0  0
 15 18  1  0  0  0  0
 11 19  4  0  0  0  0
 19 20  1  0  0  0  0
 20 21  2  0  0  0  0
 20 22  1  0  0  0  0
 22 23  1  0  0  0  0
 23 24  4  0  0  0  0
 24 25  1  0  0  0  0
 24 26  4  0  0  0  0
 26 27  4  0  0  0  0
 27 28  4  0  0  0  0
 28 29  4  0  0  0  0
 23 29  4  0  0  0  0
 29 30  1  0  0  0  0
 19 31  4  0  0  0  0
 31 32  4  0  0  0  0
  9 32  4  0  0  0  0
 32 33  1  0  0  0  0
  8 34  4  0  0  0  0
  3 34  4  0  0  0  0
 34 35  2  0  0  0  0
M  END
> <IC50(uM)>
0.0143

> <Outcome>
1.0

> <BindingDB ID>
972565; 1098719

> <BindingDB MonomerID>
470439

> <BindingDB Ligand Name>
N-(2,6-difluorophenyl)-4-[4-ethyl-3-(hydroxymethyl)-5-oxo-4,5-dihydro-1H-1,2,4-triazol-1-yl]-5-fluoro-2-{[(2S)-1,1,1-trifluoropropan-2-yl]oxy}benzamide::US10815215, Example 107; N-(2,6-difluorophenyl)-4-[4-ethyl-3-(hydroxymethyl)-5-oxo-4,5-dihydro-1H-1,2,4-triazol-1-yl]-5-fluoro-2-{[(2S)-1,1,1-trifluoropropan-2-yl]oxy}benzamide::US10815215, Example 107::US11130745, Example 107

> <Curation/DataSource>
US Patent

> <Article DOI>
?

> <PMID>
?

> <Patent Number>
US10815215; US11130745

> <Authors>
Gradl, SN; Nguyen, D; Eis, K; Gunther, J; Stellfeld, T; Janzer, A; Christian, S; Muller, T; Sheikh, SE; Zhou, HJ; Zhao, C; Sykes, DB; Ferrara, SJ; Liu, K; Krober, M; Merz, C; Niehues, M; Schafer, M; Zimmermann, K; Nising, CF; Gradl, SN; Nguyen, D; Eis, K; Gunther, J; Stellfeld, T; Janzer, A; Christian, S; Muller, T; Sheikh, SE; Sykes, DB; Ferrara, SJ; Krober, M; Merz, C; Niehues, M; Schafer, M; Zimmermann, K; Nising, CF

> <Link to Ligand in BindingDB>
http://www.bindingdb.org/bind/chemsearch/marvin/MolStructure.jsp?monomerid=470439

> <Link to Ligand-Target Pair in BindingDB>
http://www.bindingdb.org/jsp/dbsearch/PrimarySearch_ki.jsp?energyterm=kJ/mole&tag=r21&monomerid=470439&enzyme=Dihydroorotate+dehydrogenase&column=ki&startPg=0&Increment=50&submit=Search

> <PubChem CID>
134470377

> <PubChem SID>
441609616

$$$$

  Mrv2115 07222212352D          

 28 30  0  0  0  0            999 V2000
   -2.1434   -1.2375    0.0000 C   0  0  0  0  0  0  0  0  0  0  0  0
   -2.8579   -1.6500    0.0000 O   0  0  0  0  0  0  0  0  0  0  0  0
   -2.8579   -2.4750    0.0000 C   0  0  0  0  0  0  0  0  0  0  0  0
   -2.1434   -2.8875    0.0000 C   0  0  0  0  0  0  0  0  0  0  0  0
   -2.1434   -3.7125    0.0000 C   0  0  0  0  0  0  0  0  0  0  0  0
   -2.8579   -4.1250    0.0000 C   0  0  0  0  0  0  0  0  0  0  0  0
   -3.5724   -3.7125    0.0000 C   0  0  0  0  0  0  0  0  0  0  0  0
   -4.2868   -4.1250    0.0000 C   0  0  0  0  0  0  0  0  0  0  0  0
   -4.2868   -4.9500    0.0000 C   0  0  0  0  0  0  0  0  0  0  0  0
   -3.5724   -5.3625    0.0000 F   0  0  0  0  0  0  0  0  0  0  0  0
   -5.0013   -5.3625    0.0000 C   0  0  0  0  0  0  0  0  0  0  0  0
   -5.0013   -6.1875    0.0000 F   0  0  0  0  0  0  0  0  0  0  0  0
   -5.7158   -4.9500    0.0000 C   0  0  0  0  0  0  0  0  0  0  0  0
   -6.4302   -5.3625    0.0000 N   0  0  0  0  0  0  0  0  0  0  0  0
   -6.4302   -6.1875    0.0000 C   0  0  0  0  0  0  0  0  0  0  0  0
   -5.7158   -6.6000    0.0000 N   0  0  0  0  0  0  0  0  0  0  0  0
   -5.7158   -7.4250    0.0000 C   0  0  0  0  0  0  0  0  0  0  0  0
   -6.4302   -7.8375    0.0000 C   0  0  0  0  0  0  0  0  0  0  0  0
   -7.1447   -7.4250    0.0000 C   0  0  0  0  0  0  0  0  0  0  0  0
   -7.1447   -6.6000    0.0000 C   0  0  0  0  0  0  0  0  0  0  0  0
   -7.8592   -6.1875    0.0000 C   0  0  0  0  0  0  0  0  0  0  0  0
   -7.8592   -5.3625    0.0000 O   0  0  0  0  0  0  0  0  0  0  0  0
   -8.5737   -6.6000    0.0000 O   0  0  0  0  0  0  0  0  0  0  0  0
   -5.7158   -4.1250    0.0000 C   0  0  0  0  0  0  0  0  0  0  0  0
   -6.4302   -3.7125    0.0000 F   0  0  0  0  0  0  0  0  0  0  0  0
   -5.0013   -3.7125    0.0000 C   0  0  0  0  0  0  0  0  0  0  0  0
   -5.0013   -2.8875    0.0000 F   0  0  0  0  0  0  0  0  0  0  0  0
   -3.5724   -2.8875    0.0000 C   0  0  0  0  0  0  0  0  0  0  0  0
  1  2  1  0  0  0  0
  2  3  1  0  0  0  0
  3  4  4  0  0  0  0
  4  5  4  0  0  0  0
  5  6  4  0  0  0  0
  6  7  4  0  0  0  0
  7  8  1  0  0  0  0
  8  9  4  0  0  0  0
  9 10  1  0  0  0  0
  9 11  4  0  0  0  0
 11 12  1  0  0  0  0
 11 13  4  0  0  0  0
 13 14  1  0  0  0  0
 14 15  1  0  0  0  0
 15 16  4  0  0  0  0
 16 17  4  0  0  0  0
 17 18  4  0  0  0  0
 18 19  4  0  0  0  0
 19 20  4  0  0  0  0
 15 20  4  0  0  0  0
 20 21  1  0  0  0  0
 21 22  2  0  0  0  0
 21 23  1  0  0  0  0
 13 24  4  0  0  0  0
 24 25  1  0  0  0  0
 24 26  4  0  0  0  0
  8 26  4  0  0  0  0
 26 27  1  0  0  0  0
  7 28  4  0  0  0  0
  3 28  4  0  0  0  0
M  END
> <IC50(uM)>
0.003

> <Outcome>
1.0

> <BindingDB ID>
246924; 51186831

> <BindingDB MonomerID>
119831

> <BindingDB Ligand Name>
US8691852, 60

> <Curation/DataSource>
US Patent; ChEMBL

> <Article DOI>
?; 10.1007/s00044-011-9837-4

> <PMID>
?

> <Patent Number>
US8691852; ?

> <Authors>
Castro Palomino Laria, JC; Erra Sola, M; Lozoya Toribio, ME; Navarro Romero, E; n/a

> <Link to Ligand in BindingDB>
http://www.bindingdb.org/bind/chemsearch/marvin/MolStructure.jsp?monomerid=119831

> <Link to Ligand-Target Pair in BindingDB>
http://www.bindingdb.org/jsp/dbsearch/PrimarySearch_ki.jsp?energyterm=kJ/mole&tag=r21&monomerid=119831&enzyme=Dihydroorotate+dehydrogenase&column=ki&startPg=0&Increment=50&submit=Search

> <PubChem CID>
24829334

> <PubChem SID>
220230625

$$$$

  Mrv2115 07222212352D          

 34 36  0  0  0  0            999 V2000
    0.7145   -3.7125    0.0000 C   0  0  0  0  0  0  0  0  0  0  0  0
    1.4289   -4.1250    0.0000 C   0  0  0  0  0  0  0  0  0  0  0  0
    2.1434   -3.7125    0.0000 C   0  0  0  0  0  0  0  0  0  0  0  0
    2.8579   -4.1250    0.0000 C   0  0  0  0  0  0  0  0  0  0  0  0
    2.8579   -4.9500    0.0000 C   0  0  0  0  0  0  0  0  0  0  0  0
    3.5724   -3.7125    0.0000 O   0  0  0  0  0  0  0  0  0  0  0  0
    3.5724   -2.8875    0.0000 C   0  0  0  0  0  0  0  0  0  0  0  0
    2.8579   -2.4750    0.0000 C   0  0  0  0  0  0  0  0  0  0  0  0
    2.8579   -1.6500    0.0000 C   0  0  0  0  0  0  0  0  0  0  0  0
    2.1434   -1.2375    0.0000 N   0  0  0  0  0  0  0  0  0  0  0  0
    1.3897   -1.5731    0.0000 N   0  0  0  0  0  0  0  0  0  0  0  0
    0.8377   -0.9600    0.0000 C   0  0  0  0  0  0  0  0  0  0  0  0
    0.0172   -1.0462    0.0000 C   0  0  0  0  0  0  0  0  0  0  0  0
   -0.4677   -0.3788    0.0000 O   0  0  0  0  0  0  0  0  0  0  0  0
    1.2502   -0.2455    0.0000 N   0  0  0  0  0  0  0  0  0  0  0  0
    0.9146    0.5082    0.0000 C   0  0  0  0  0  0  0  0  0  0  0  0
    2.0572   -0.4170    0.0000 C   0  0  0  0  0  0  0  0  0  0  0  0
    2.6703    0.1350    0.0000 O   0  0  0  0  0  0  0  0  0  0  0  0
    3.5724   -1.2375    0.0000 C   0  0  0  0  0  0  0  0  0  0  0  0
    3.5724   -0.4125    0.0000 F   0  0  0  0  0  0  0  0  0  0  0  0
    4.2868   -1.6500    0.0000 C   0  0  0  0  0  0  0  0  0  0  0  0
    4.2868   -2.4750    0.0000 C   0  0  0  0  0  0  0  0  0  0  0  0
    5.0013   -2.8875    0.0000 C   0  0  0  0  0  0  0  0  0  0  0  0
    5.7158   -2.4750    0.0000 O   0  0  0  0  0  0  0  0  0  0  0  0
    5.0013   -3.7125    0.0000 N   0  0  0  0  0  0  0  0  0  0  0  0
    5.7158   -4.1250    0.0000 C   0  0  0  0  0  0  0  0  0  0  0  0
    6.4302   -3.7125    0.0000 C   0  0  0  0  0  0  0  0  0  0  0  0
    6.4302   -2.8875    0.0000 C   0  0  0  0  0  0  0  0  0  0  0  0
    7.1447   -4.1250    0.0000 C   0  0  0  0  0  0  0  0  0  0  0  0
    7.1447   -4.9500    0.0000 C   0  0  0  0  0  0  0  0  0  0  0  0
    6.4302   -5.3625    0.0000 N   0  0  0  0  0  0  0  0  0  0  0  0
    5.7158   -4.9500    0.0000 C   0  0  0  0  0  0  0  0  0  0  0  0
    5.0013   -5.3625    0.0000 O   0  0  0  0  0  0  0  0  0  0  0  0
    4.2868   -4.9500    0.0000 C   0  0  0  0  0  0  0  0  0  0  0  0
  1  2  1  0  0  0  0
  2  3  1  0  0  0  0
  3  4  1  0  0  0  0
  4  5  1  0  0  0  0
  4  6  1  0  0  0  0
  6  7  1  0  0  0  0
  7  8  4  0  0  0  0
  8  9  4  0  0  0  0
  9 10  1  0  0  0  0
 10 11  4  0  0  0  0
 11 12  4  0  0  0  0
 12 13  1  0  0  0  0
 13 14  1  0  0  0  0
 12 15  4  0  0  0  0
 15 16  1  0  0  0  0
 15 17  4  0  0  0  0
 10 17  4  0  0  0  0
 17 18  2  0  0  0  0
  9 19  4  0  0  0  0
 19 20  1  0  0  0  0
 19 21  4  0  0  0  0
 21 22  4  0  0  0  0
  7 22  4  0  0  0  0
 22 23  1  0  0  0  0
 23 24  2  0  0  0  0
 23 25  1  0  0  0  0
 25 26  1  0  0  0  0
 26 27  4  0  0  0  0
 27 28  1  0  0  0  0
 27 29  4  0  0  0  0
 29 30  4  0  0  0  0
 30 31  4  0  0  0  0
 31 32  4  0  0  0  0
 26 32  4  0  0  0  0
 32 33  1  0  0  0  0
 33 34  1  0  0  0  0
M  END
> <IC50(uM)>
0.015

> <Outcome>
1.0

> <BindingDB ID>
972596; 1098750

> <BindingDB MonomerID>
470475

> <BindingDB Ligand Name>
5-fluoro-4-[3-(hydroxymethyl)-4-methyl-5-oxo-4,5-dihydro-1H-1,2,4-triazol-1-yl]-N-(2-methoxy-4-methylpyridin-3-yl)-2-[(2S)-pentan-2-yloxy]benzamide::US10815215, Example 138; 5-fluoro-4-[3-(hydroxymethyl)-4-methyl-5-oxo-4,5-dihydro-1H-1,2,4-triazol-1-yl]-N-(2-methoxy-4-methylpyridin-3-yl)-2-[(2S)-pentan-2-yloxy]benzamide::US10815215, Example 138::US11130745, Example 138

> <Curation/DataSource>
US Patent

> <Article DOI>
?

> <PMID>
?

> <Patent Number>
US10815215; US11130745

> <Authors>
Gradl, SN; Nguyen, D; Eis, K; Gunther, J; Stellfeld, T; Janzer, A; Christian, S; Muller, T; Sheikh, SE; Zhou, HJ; Zhao, C; Sykes, DB; Ferrara, SJ; Liu, K; Krober, M; Merz, C; Niehues, M; Schafer, M; Zimmermann, K; Nising, CF; Gradl, SN; Nguyen, D; Eis, K; Gunther, J; Stellfeld, T; Janzer, A; Christian, S; Muller, T; Sheikh, SE; Sykes, DB; Ferrara, SJ; Krober, M; Merz, C; Niehues, M; Schafer, M; Zimmermann, K; Nising, CF

> <Link to Ligand in BindingDB>
http://www.bindingdb.org/bind/chemsearch/marvin/MolStructure.jsp?monomerid=470475

> <Link to Ligand-Target Pair in BindingDB>
http://www.bindingdb.org/jsp/dbsearch/PrimarySearch_ki.jsp?energyterm=kJ/mole&tag=r21&monomerid=470475&enzyme=Dihydroorotate+dehydrogenase&column=ki&startPg=0&Increment=50&submit=Search

> <PubChem CID>
142335838

> <PubChem SID>
441609652

$$$$

  Mrv2115 07222212352D          

 18 19  0  0  0  0            999 V2000
    1.3222   -0.0616    0.0000 C   0  0  0  0  0  0  0  0  0  0  0  0
    2.0367   -0.4741    0.0000 C   0  0  0  0  0  0  0  0  0  0  0  0
    2.7512   -0.0616    0.0000 O   0  0  0  0  0  0  0  0  0  0  0  0
    2.0367   -1.2991    0.0000 C   0  0  0  0  0  0  0  0  0  0  0  0
    2.7041   -1.7840    0.0000 S   0  0  0  0  0  0  0  0  0  0  0  0
    2.4492   -2.5687    0.0000 C   0  0  0  0  0  0  0  0  0  0  0  0
    2.9341   -3.2361    0.0000 N   0  0  0  0  0  0  0  0  0  0  0  0
    2.5986   -3.9898    0.0000 C   0  0  0  0  0  0  0  0  0  0  0  0
    3.0835   -4.6572    0.0000 C   0  0  0  0  0  0  0  0  0  0  0  0
    2.7479   -5.4109    0.0000 C   0  0  0  0  0  0  0  0  0  0  0  0
    1.9275   -5.4971    0.0000 C   0  0  0  0  0  0  0  0  0  0  0  0
    1.5919   -6.2508    0.0000 C   0  0  0  0  0  0  0  0  0  0  0  0
    1.4425   -4.8297    0.0000 C   0  0  0  0  0  0  0  0  0  0  0  0
    0.6221   -4.9159    0.0000 C   0  0  0  0  0  0  0  0  0  0  0  0
    1.7781   -4.0760    0.0000 C   0  0  0  0  0  0  0  0  0  0  0  0
    1.6242   -2.5687    0.0000 N   0  0  0  0  0  0  0  0  0  0  0  0
    1.3693   -1.7840    0.0000 C   0  0  0  0  0  0  0  0  0  0  0  0
    0.5846   -1.5291    0.0000 C   0  0  0  0  0  0  0  0  0  0  0  0
  1  2  1  0  0  0  0
  2  3  2  0  0  0  0
  2  4  1  0  0  0  0
  4  5  4  0  0  0  0
  5  6  4  0  0  0  0
  6  7  1  0  0  0  0
  7  8  1  0  0  0  0
  8  9  4  0  0  0  0
  9 10  4  0  0  0  0
 10 11  4  0  0  0  0
 11 12  1  0  0  0  0
 11 13  4  0  0  0  0
 13 14  1  0  0  0  0
 13 15  4  0  0  0  0
  8 15  4  0  0  0  0
  6 16  4  0  0  0  0
 16 17  4  0  0  0  0
  4 17  4  0  0  0  0
 17 18  1  0  0  0  0
M  END
> <IC50(uM)>
3.848

> <Outcome>
0.0

> <BindingDB ID>
50312480

> <BindingDB MonomerID>
50071792

> <BindingDB Ligand Name>
CHEMBL3410572

> <Curation/DataSource>
ChEMBL

> <Article DOI>
10.1021/jm501127s

> <PMID>
25580811

> <Patent Number>
?

> <Authors>
Zhu, J; Han, L; Diao, Y; Ren, X; Xu, M; Xu, L; Li, S; Li, Q; Dong, D; Huang, J; Liu, X; Zhao, Z; Wang, R; Zhu, L; Xu, Y; Qian, X; Li, H

> <Link to Ligand in BindingDB>
http://www.bindingdb.org/bind/chemsearch/marvin/MolStructure.jsp?monomerid=50071792

> <Link to Ligand-Target Pair in BindingDB>
http://www.bindingdb.org/jsp/dbsearch/PrimarySearch_ki.jsp?energyterm=kJ/mole&tag=r21&monomerid=50071792&enzyme=Dihydroorotate+dehydrogenase&column=ki&startPg=0&Increment=50&submit=Search

> <PubChem CID>
4749758

> <PubChem SID>
103965502

$$$$

  Mrv2115 07222212352D          

 37 40  0  0  0  0            999 V2000
   -5.2708   -1.4156    0.0000 C   0  0  0  0  0  0  0  0  0  0  0  0
   -5.6833   -0.7011    0.0000 C   0  0  0  0  0  0  0  0  0  0  0  0
   -6.5083   -0.7011    0.0000 C   0  0  0  0  0  0  0  0  0  0  0  0
   -6.9208    0.0134    0.0000 C   0  0  0  0  0  0  0  0  0  0  0  0
   -7.7458    0.0134    0.0000 F   0  0  0  0  0  0  0  0  0  0  0  0
   -6.5083    0.7279    0.0000 C   0  0  0  0  0  0  0  0  0  0  0  0
   -5.6833    0.7279    0.0000 C   0  0  0  0  0  0  0  0  0  0  0  0
   -5.2708    1.4423    0.0000 C   0  0  0  0  0  0  0  0  0  0  0  0
   -5.2708    0.0134    0.0000 C   0  0  0  0  0  0  0  0  0  0  0  0
   -4.4458    0.0134    0.0000 N   0  0  0  0  0  0  0  0  0  0  0  0
   -4.0333   -0.7011    0.0000 C   0  0  0  0  0  0  0  0  0  0  0  0
   -4.4458   -1.4156    0.0000 O   0  0  0  0  0  0  0  0  0  0  0  0
   -3.2083   -0.7011    0.0000 C   0  0  0  0  0  0  0  0  0  0  0  0
   -2.7958    0.0134    0.0000 C   0  0  0  0  0  0  0  0  0  0  0  0
   -1.9708    0.0134    0.0000 C   0  0  0  0  0  0  0  0  0  0  0  0
   -1.5583    0.7279    0.0000 F   0  0  0  0  0  0  0  0  0  0  0  0
   -1.5583   -0.7011    0.0000 C   0  0  0  0  0  0  0  0  0  0  0  0
   -0.7333   -0.7011    0.0000 N   0  0  0  0  0  0  0  0  0  0  0  0
   -0.2483   -1.3685    0.0000 N   0  0  0  0  0  0  0  0  0  0  0  0
    0.5363   -1.1136    0.0000 C   0  0  0  0  0  0  0  0  0  0  0  0
    0.5363   -0.2886    0.0000 N   0  0  0  0  0  0  0  0  0  0  0  0
   -0.2483   -0.0336    0.0000 C   0  0  0  0  0  0  0  0  0  0  0  0
   -0.5033    0.7510    0.0000 O   0  0  0  0  0  0  0  0  0  0  0  0
    1.1813    0.2258    0.0000 C   0  0  0  0  0  0  0  0  0  0  0  0
    1.9856    0.0422    0.0000 C   0  0  0  0  0  0  0  0  0  0  0  0
    2.3436   -0.7011    0.0000 C   0  0  0  0  0  0  0  0  0  0  0  0
    1.9856   -1.4444    0.0000 O   0  0  0  0  0  0  0  0  0  0  0  0
    1.1813   -1.6280    0.0000 C   0  0  0  0  0  0  0  0  0  0  0  0
   -1.9708   -1.4156    0.0000 C   0  0  0  0  0  0  0  0  0  0  0  0
   -2.7958   -1.4156    0.0000 C   0  0  0  0  0  0  0  0  0  0  0  0
   -3.2083   -2.1300    0.0000 O   0  0  0  0  0  0  0  0  0  0  0  0
   -2.7958   -2.8445    0.0000 C   0  0  0  0  0  0  0  0  0  0  0  0
   -1.9708   -2.8445    0.0000 C   0  0  0  0  0  0  0  0  0  0  0  0
   -3.2083   -3.5590    0.0000 C   0  0  0  0  0  0  0  0  0  0  0  0
   -3.9227   -3.1465    0.0000 F   0  0  0  0  0  0  0  0  0  0  0  0
   -2.4938   -3.9715    0.0000 F   0  0  0  0  0  0  0  0  0  0  0  0
   -3.6208   -4.2734    0.0000 F   0  0  0  0  0  0  0  0  0  0  0  0
  1  2  1  0  0  0  0
  2  3  4  0  0  0  0
  3  4  4  0  0  0  0
  4  5  1  0  0  0  0
  4  6  4  0  0  0  0
  6  7  4  0  0  0  0
  7  8  1  0  0  0  0
  7  9  4  0  0  0  0
  2  9  4  0  0  0  0
  9 10  1  0  0  0  0
 10 11  1  0  0  0  0
 11 12  2  0  0  0  0
 11 13  1  0  0  0  0
 13 14  4  0  0  0  0
 14 15  4  0  0  0  0
 15 16  1  0  0  0  0
 15 17  4  0  0  0  0
 17 18  1  0  0  0  0
 18 19  4  0  0  0  0
 19 20  4  0  0  0  0
 20 21  4  0  0  0  0
 21 22  4  0  0  0  0
 18 22  4  0  0  0  0
 22 23  2  0  0  0  0
 21 24  1  0  0  0  0
 24 25  1  0  0  0  0
 25 26  1  0  0  0  0
 26 27  1  0  0  0  0
 27 28  1  0  0  0  0
 20 28  1  0  0  0  0
 17 29  4  0  0  0  0
 29 30  4  0  0  0  0
 13 30  4  0  0  0  0
 30 31  1  0  0  0  0
 31 32  1  0  0  0  0
 32 33  1  0  0  0  0
 32 34  1  0  0  0  0
 34 35  1  0  0  0  0
 34 36  1  0  0  0  0
 34 37  1  0  0  0  0
M  END
> <IC50(uM)>
0.0075

> <Outcome>
1.0

> <BindingDB ID>
1020640

> <BindingDB MonomerID>
490569

> <BindingDB Ligand Name>
5-fluoro-N-(4-fluoro-2,6-dimethylphenyl)-4-(3-oxo-6,7-dihydro-3H,5H-[1,2,4]triazolo[3,4-c]-[1,4]oxazepin-2(9H)-yl)-2-{[(2S)-1,1,1-trifluoropropan-2-yl]oxy}benzamide::US10968216, Example 237

> <Curation/DataSource>
US Patent

> <Article DOI>
?

> <PMID>
?

> <Patent Number>
US10968216

> <Authors>
Gradl, SN; Nguyen, D; Eis, K; Gunther, J; Stellfeld, T; Janzer, A; Christian, S; Mueller, T; Sheikh, SE; Zhou, HJ; Zhao, C; Sykes, DB; Ferrara, SJ; Liu, K; Herbert, SA; Merz, C; Niehues, M; Nising, CF; Schafer, M; Zimmermann, K; Knablein, J; Thede, K; Faupel, T

> <Link to Ligand in BindingDB>
http://www.bindingdb.org/bind/chemsearch/marvin/MolStructure.jsp?monomerid=490569

> <Link to Ligand-Target Pair in BindingDB>
http://www.bindingdb.org/jsp/dbsearch/PrimarySearch_ki.jsp?energyterm=kJ/mole&tag=r21&monomerid=490569&enzyme=Dihydroorotate+dehydrogenase&column=ki&startPg=0&Increment=50&submit=Search

> <PubChem CID>
134474182

> <PubChem SID>
447117295

$$$$

  Mrv2115 07222212352D          

 24 26  0  0  0  0            999 V2000
    1.4289    4.1250    0.0000 F   0  0  0  0  0  0  0  0  0  0  0  0
    1.4289    3.3000    0.0000 C   0  0  0  0  0  0  0  0  0  0  0  0
    0.6039    3.3000    0.0000 F   0  0  0  0  0  0  0  0  0  0  0  0
    2.2539    3.3000    0.0000 F   0  0  0  0  0  0  0  0  0  0  0  0
    1.4289    2.4750    0.0000 C   0  0  0  0  0  0  0  0  0  0  0  0
    2.1434    2.0625    0.0000 C   0  0  0  0  0  0  0  0  0  0  0  0
    2.1434    1.2375    0.0000 C   0  0  0  0  0  0  0  0  0  0  0  0
    1.4289    0.8250    0.0000 C   0  0  0  0  0  0  0  0  0  0  0  0
    1.4289   -0.0000    0.0000 N   0  0  0  0  0  0  0  0  0  0  0  0
    0.7145   -0.4125    0.0000 C   0  0  0  0  0  0  0  0  0  0  0  0
    0.0000    0.0000    0.0000 S   0  0  0  0  0  0  0  0  0  0  0  0
    0.7145   -1.2375    0.0000 C   0  0  0  0  0  0  0  0  0  0  0  0
    1.3819   -1.7224    0.0000 C   0  0  0  0  0  0  0  0  0  0  0  0
    1.1270   -2.5070    0.0000 N   0  0  0  0  0  0  0  0  0  0  0  0
    0.3020   -2.5070    0.0000 O   0  0  0  0  0  0  0  0  0  0  0  0
    0.0470   -1.7224    0.0000 C   0  0  0  0  0  0  0  0  0  0  0  0
   -0.7376   -1.4675    0.0000 C   0  0  0  0  0  0  0  0  0  0  0  0
   -1.3507   -2.0195    0.0000 C   0  0  0  0  0  0  0  0  0  0  0  0
   -2.1353   -1.7646    0.0000 C   0  0  0  0  0  0  0  0  0  0  0  0
   -2.3068   -0.9576    0.0000 C   0  0  0  0  0  0  0  0  0  0  0  0
   -1.6937   -0.4056    0.0000 C   0  0  0  0  0  0  0  0  0  0  0  0
   -0.9091   -0.6605    0.0000 C   0  0  0  0  0  0  0  0  0  0  0  0
    0.7145    1.2375    0.0000 C   0  0  0  0  0  0  0  0  0  0  0  0
    0.7145    2.0625    0.0000 C   0  0  0  0  0  0  0  0  0  0  0  0
  1  2  1  0  0  0  0
  2  3  1  0  0  0  0
  2  4  1  0  0  0  0
  2  5  1  0  0  0  0
  5  6  4  0  0  0  0
  6  7  4  0  0  0  0
  7  8  4  0  0  0  0
  8  9  1  0  0  0  0
  9 10  1  0  0  0  0
 10 11  2  0  0  0  0
 10 12  1  0  0  0  0
 12 13  4  0  0  0  0
 13 14  4  0  0  0  0
 14 15  4  0  0  0  0
 15 16  4  0  0  0  0
 12 16  4  0  0  0  0
 16 17  1  0  0  0  0
 17 18  1  0  0  0  0
 18 19  1  0  0  0  0
 19 20  1  0  0  0  0
 20 21  1  0  0  0  0
 21 22  1  0  0  0  0
 17 22  1  0  0  0  0
  8 23  4  0  0  0  0
 23 24  4  0  0  0  0
  5 24  4  0  0  0  0
M  END
> <IC50(uM)>
50.0

> <Outcome>
0.0

> <BindingDB ID>
50123305

> <BindingDB MonomerID>
50071399

> <BindingDB Ligand Name>
5-Cyclohexyl-isoxazole-4-carbothioic acid (4-trifluoromethyl-phenyl)-amide::CHEMBL71682

> <Curation/DataSource>
ChEMBL

> <Article DOI>
10.1016/s0960-894x(98)00365-5

> <PMID>
9873513

> <Patent Number>
?

> <Authors>
Albert, R; Knecht, H; Andersen, E; Hungerford, V; Schreier, MH; Papageorgiou, C

> <Link to Ligand in BindingDB>
http://www.bindingdb.org/bind/chemsearch/marvin/MolStructure.jsp?monomerid=50071399

> <Link to Ligand-Target Pair in BindingDB>
http://www.bindingdb.org/jsp/dbsearch/PrimarySearch_ki.jsp?energyterm=kJ/mole&tag=r21&monomerid=50071399&enzyme=Dihydroorotate+dehydrogenase&column=ki&startPg=0&Increment=50&submit=Search

> <PubChem CID>
44310695

> <PubChem SID>
103965153

$$$$

  Mrv2115 07222212352D          

 34 36  0  0  0  0            999 V2000
    4.2868   -2.4750    0.0000 C   0  0  0  0  0  0  0  0  0  0  0  0
    3.5724   -2.8875    0.0000 C   0  0  0  0  0  0  0  0  0  0  0  0
    2.8579   -2.4750    0.0000 O   0  0  0  0  0  0  0  0  0  0  0  0
    2.1434   -2.8875    0.0000 C   0  0  0  0  0  0  0  0  0  0  0  0
    2.1434   -3.7125    0.0000 C   0  0  0  0  0  0  0  0  0  0  0  0
    1.4289   -4.1250    0.0000 C   0  0  0  0  0  0  0  0  0  0  0  0
    1.4289   -4.9500    0.0000 N   0  0  0  0  0  0  0  0  0  0  0  0
    2.0964   -5.4349    0.0000 N   0  0  0  0  0  0  0  0  0  0  0  0
    1.8414   -6.2195    0.0000 C   0  0  0  0  0  0  0  0  0  0  0  0
    2.3264   -6.8870    0.0000 C   0  0  0  0  0  0  0  0  0  0  0  0
    1.9908   -7.6407    0.0000 O   0  0  0  0  0  0  0  0  0  0  0  0
    1.0164   -6.2195    0.0000 N   0  0  0  0  0  0  0  0  0  0  0  0
    0.5315   -6.8870    0.0000 C   0  0  0  0  0  0  0  0  0  0  0  0
    0.7615   -5.4349    0.0000 C   0  0  0  0  0  0  0  0  0  0  0  0
   -0.0231   -5.1800    0.0000 O   0  0  0  0  0  0  0  0  0  0  0  0
    0.7145   -3.7125    0.0000 C   0  0  0  0  0  0  0  0  0  0  0  0
    0.0000   -4.1250    0.0000 F   0  0  0  0  0  0  0  0  0  0  0  0
    0.7145   -2.8875    0.0000 C   0  0  0  0  0  0  0  0  0  0  0  0
    1.4289   -2.4750    0.0000 C   0  0  0  0  0  0  0  0  0  0  0  0
    1.4289   -1.6500    0.0000 C   0  0  0  0  0  0  0  0  0  0  0  0
    2.1434   -1.2375    0.0000 O   0  0  0  0  0  0  0  0  0  0  0  0
    0.7145   -1.2375    0.0000 N   0  0  0  0  0  0  0  0  0  0  0  0
    0.7145   -0.4125    0.0000 C   0  0  0  0  0  0  0  0  0  0  0  0
    0.0000    0.0000    0.0000 C   0  0  0  0  0  0  0  0  0  0  0  0
   -0.7145   -0.4125    0.0000 F   0  0  0  0  0  0  0  0  0  0  0  0
    0.0000    0.8250    0.0000 C   0  0  0  0  0  0  0  0  0  0  0  0
    0.7145    1.2375    0.0000 C   0  0  0  0  0  0  0  0  0  0  0  0
    1.4289    0.8250    0.0000 C   0  0  0  0  0  0  0  0  0  0  0  0
    1.4289    0.0000    0.0000 C   0  0  0  0  0  0  0  0  0  0  0  0
    2.1434   -0.4125    0.0000 F   0  0  0  0  0  0  0  0  0  0  0  0
    3.5724   -3.7125    0.0000 C   0  0  0  0  0  0  0  0  0  0  0  0
    2.7474   -3.7125    0.0000 F   0  0  0  0  0  0  0  0  0  0  0  0
    4.3974   -3.7125    0.0000 F   0  0  0  0  0  0  0  0  0  0  0  0
    3.5724   -4.5375    0.0000 F   0  0  0  0  0  0  0  0  0  0  0  0
  1  2  1  0  0  0  0
  2  3  1  0  0  0  0
  3  4  1  0  0  0  0
  4  5  4  0  0  0  0
  5  6  4  0  0  0  0
  6  7  1  0  0  0  0
  7  8  4  0  0  0  0
  8  9  4  0  0  0  0
  9 10  1  0  0  0  0
 10 11  1  0  0  0  0
  9 12  4  0  0  0  0
 12 13  1  0  0  0  0
 12 14  4  0  0  0  0
  7 14  4  0  0  0  0
 14 15  2  0  0  0  0
  6 16  4  0  0  0  0
 16 17  1  0  0  0  0
 16 18  4  0  0  0  0
 18 19  4  0  0  0  0
  4 19  4  0  0  0  0
 19 20  1  0  0  0  0
 20 21  2  0  0  0  0
 20 22  1  0  0  0  0
 22 23  1  0  0  0  0
 23 24  4  0  0  0  0
 24 25  1  0  0  0  0
 24 26  4  0  0  0  0
 26 27  4  0  0  0  0
 27 28  4  0  0  0  0
 28 29  4  0  0  0  0
 23 29  4  0  0  0  0
 29 30  1  0  0  0  0
  2 31  1  0  0  0  0
 31 32  1  0  0  0  0
 31 33  1  0  0  0  0
 31 34  1  0  0  0  0
M  END
> <IC50(uM)>
0.0498

> <Outcome>
1.0

> <BindingDB ID>
972554; 1098708

> <BindingDB MonomerID>
470428

> <BindingDB Ligand Name>
N-(2,6-difluorophenyl)-5-fluoro-4-[3-(hydroxymethyl)-4-methyl-5-oxo-4,5-dihydro-1H-1,2,4-triazol-1-yl]-2-{[(2S)-1,1,1-trifluoropropan-2-yl]oxy}benzamide::US10815215, Example 96; N-(2,6-difluorophenyl)-5-fluoro-4-[3-(hydroxymethyl)-4-methyl-5-oxo-4,5-dihydro-1H-1,2,4-triazol-1-yl]-2-{[(2S)-1,1,1-trifluoropropan-2-yl]oxy}benzamide::US10815215, Example 96::US11130745, Example 96

> <Curation/DataSource>
US Patent

> <Article DOI>
?

> <PMID>
?

> <Patent Number>
US10815215; US11130745

> <Authors>
Gradl, SN; Nguyen, D; Eis, K; Gunther, J; Stellfeld, T; Janzer, A; Christian, S; Muller, T; Sheikh, SE; Zhou, HJ; Zhao, C; Sykes, DB; Ferrara, SJ; Liu, K; Krober, M; Merz, C; Niehues, M; Schafer, M; Zimmermann, K; Nising, CF; Gradl, SN; Nguyen, D; Eis, K; Gunther, J; Stellfeld, T; Janzer, A; Christian, S; Muller, T; Sheikh, SE; Sykes, DB; Ferrara, SJ; Krober, M; Merz, C; Niehues, M; Schafer, M; Zimmermann, K; Nising, CF

> <Link to Ligand in BindingDB>
http://www.bindingdb.org/bind/chemsearch/marvin/MolStructure.jsp?monomerid=470428

> <Link to Ligand-Target Pair in BindingDB>
http://www.bindingdb.org/jsp/dbsearch/PrimarySearch_ki.jsp?energyterm=kJ/mole&tag=r21&monomerid=470428&enzyme=Dihydroorotate+dehydrogenase&column=ki&startPg=0&Increment=50&submit=Search

> <PubChem CID>
134470288

> <PubChem SID>
441609605

$$$$

  Mrv2115 07222212352D          

 26 28  0  0  0  0            999 V2000
   -2.8579    9.6536    0.0000 C   0  0  0  0  0  0  0  0  0  0  0  0
   -2.1434    9.2411    0.0000 O   0  0  0  0  0  0  0  0  0  0  0  0
   -1.4289    9.6536    0.0000 C   0  0  0  0  0  0  0  0  0  0  0  0
   -1.4289   10.4786    0.0000 C   0  0  0  0  0  0  0  0  0  0  0  0
   -0.7145   10.8911    0.0000 C   0  0  0  0  0  0  0  0  0  0  0  0
   -0.0000   10.4786    0.0000 C   0  0  0  0  0  0  0  0  0  0  0  0
   -0.0000    9.6536    0.0000 C   0  0  0  0  0  0  0  0  0  0  0  0
   -0.7145    9.2411    0.0000 C   0  0  0  0  0  0  0  0  0  0  0  0
   -0.7145    8.4161    0.0000 C   0  0  0  0  0  0  0  0  0  0  0  0
   -0.0000    8.0036    0.0000 C   0  0  0  0  0  0  0  0  0  0  0  0
   -0.0000    7.1786    0.0000 C   0  0  0  0  0  0  0  0  0  0  0  0
   -0.7145    6.7661    0.0000 C   0  0  0  0  0  0  0  0  0  0  0  0
   -0.7145    5.9411    0.0000 N   0  0  0  0  0  0  0  0  0  0  0  0
   -0.0000    5.5286    0.0000 C   0  0  0  0  0  0  0  0  0  0  0  0
    0.7145    5.9411    0.0000 O   0  0  0  0  0  0  0  0  0  0  0  0
   -0.0000    4.7036    0.0000 C   0  0  0  0  0  0  0  0  0  0  0  0
    0.6674    4.2187    0.0000 C   0  0  0  0  0  0  0  0  0  0  0  0
    1.4521    4.4736    0.0000 C   0  0  0  0  0  0  0  0  0  0  0  0
    1.6236    5.2806    0.0000 O   0  0  0  0  0  0  0  0  0  0  0  0
    2.0652    3.9216    0.0000 O   0  0  0  0  0  0  0  0  0  0  0  0
    0.4125    3.4340    0.0000 C   0  0  0  0  0  0  0  0  0  0  0  0
   -0.4125    3.4340    0.0000 C   0  0  0  0  0  0  0  0  0  0  0  0
   -0.6674    4.2187    0.0000 C   0  0  0  0  0  0  0  0  0  0  0  0
   -1.4289    7.1786    0.0000 C   0  0  0  0  0  0  0  0  0  0  0  0
   -2.1434    6.7661    0.0000 Cl  0  0  0  0  0  0  0  0  0  0  0  0
   -1.4289    8.0036    0.0000 C   0  0  0  0  0  0  0  0  0  0  0  0
  1  2  1  0  0  0  0
  2  3  1  0  0  0  0
  3  4  4  0  0  0  0
  4  5  4  0  0  0  0
  5  6  4  0  0  0  0
  6  7  4  0  0  0  0
  7  8  4  0  0  0  0
  3  8  4  0  0  0  0
  8  9  1  0  0  0  0
  9 10  4  0  0  0  0
 10 11  4  0  0  0  0
 11 12  4  0  0  0  0
 12 13  1  0  0  0  0
 13 14  1  0  0  0  0
 14 15  2  0  0  0  0
 14 16  1  0  0  0  0
 16 17  2  0  0  0  0
 17 18  1  0  0  0  0
 18 19  2  0  0  0  0
 18 20  1  0  0  0  0
 17 21  1  0  0  0  0
 21 22  1  0  0  0  0
 22 23  1  0  0  0  0
 16 23  1  0  0  0  0
 12 24  4  0  0  0  0
 24 25  1  0  0  0  0
 24 26  4  0  0  0  0
  9 26  4  0  0  0  0
M  END
> <IC50(uM)>
0.31

> <Outcome>
1.0

> <BindingDB ID>
50251721

> <BindingDB MonomerID>
50137304

> <BindingDB Ligand Name>
2-(3-Chloro-2'-methoxy-biphenyl-4-ylcarbamoyl)-cyclopent-1-enecarboxylic acid::CHEMBL157277

> <Curation/DataSource>
ChEMBL

> <Article DOI>
10.1016/j.bmcl.2003.10.021

> <PMID>
14684297

> <Patent Number>
?

> <Authors>
Leban, J; Saeb, W; Garcia, G; Baumgartner, R; Kramer, B

> <Link to Ligand in BindingDB>
http://www.bindingdb.org/bind/chemsearch/marvin/MolStructure.jsp?monomerid=50137304

> <Link to Ligand-Target Pair in BindingDB>
http://www.bindingdb.org/jsp/dbsearch/PrimarySearch_ki.jsp?energyterm=kJ/mole&tag=r21&monomerid=50137304&enzyme=Dihydroorotate+dehydrogenase&column=ki&startPg=0&Increment=50&submit=Search

> <PubChem CID>
21084739

> <PubChem SID>
104027470

$$$$

  Mrv2115 07222212352D          

 28 31  0  0  0  0            999 V2000
    0.0000   -1.6500    0.0000 C   0  0  0  0  0  0  0  0  0  0  0  0
    0.7145   -1.2375    0.0000 C   0  0  0  0  0  0  0  0  0  0  0  0
    0.7145   -0.4125    0.0000 C   0  0  0  0  0  0  0  0  0  0  0  0
    0.0000    0.0000    0.0000 C   0  0  0  0  0  0  0  0  0  0  0  0
   -0.7145   -0.4125    0.0000 C   0  0  0  0  0  0  0  0  0  0  0  0
   -1.4289    0.0000    0.0000 C   0  0  0  0  0  0  0  0  0  0  0  0
   -1.4289    0.8250    0.0000 C   0  0  0  0  0  0  0  0  0  0  0  0
   -2.1434    1.2375    0.0000 C   0  0  0  0  0  0  0  0  0  0  0  0
   -2.8579    0.8250    0.0000 C   0  0  0  0  0  0  0  0  0  0  0  0
   -3.5724    1.2375    0.0000 C   0  0  0  0  0  0  0  0  0  0  0  0
   -3.5724    2.0625    0.0000 C   0  0  0  0  0  0  0  0  0  0  0  0
   -2.8579    2.4750    0.0000 N   0  0  0  0  0  0  0  0  0  0  0  0
   -2.1434    2.0625    0.0000 C   0  0  0  0  0  0  0  0  0  0  0  0
   -1.4289    2.4750    0.0000 F   0  0  0  0  0  0  0  0  0  0  0  0
   -0.7145    1.2375    0.0000 C   0  0  0  0  0  0  0  0  0  0  0  0
    0.0000    0.8250    0.0000 C   0  0  0  0  0  0  0  0  0  0  0  0
    1.4289    0.0000    0.0000 N   0  0  0  0  0  0  0  0  0  0  0  0
    2.1434   -0.4125    0.0000 C   0  0  0  0  0  0  0  0  0  0  0  0
    2.8579    0.0000    0.0000 C   0  0  0  0  0  0  0  0  0  0  0  0
    3.5724   -0.4125    0.0000 C   0  0  0  0  0  0  0  0  0  0  0  0
    3.5724   -1.2375    0.0000 C   0  0  0  0  0  0  0  0  0  0  0  0
    4.2868   -1.6500    0.0000 Cl  0  0  0  0  0  0  0  0  0  0  0  0
    2.8579   -1.6500    0.0000 C   0  0  0  0  0  0  0  0  0  0  0  0
    2.1434   -1.2375    0.0000 C   0  0  0  0  0  0  0  0  0  0  0  0
    1.4289   -1.6500    0.0000 C   0  0  0  0  0  0  0  0  0  0  0  0
    1.4289   -2.4750    0.0000 C   0  0  0  0  0  0  0  0  0  0  0  0
    0.7145   -2.8875    0.0000 O   0  0  0  0  0  0  0  0  0  0  0  0
    2.1434   -2.8875    0.0000 O   0  0  0  0  0  0  0  0  0  0  0  0
  1  2  1  0  0  0  0
  2  3  4  0  0  0  0
  3  4  1  0  0  0  0
  4  5  4  0  0  0  0
  5  6  4  0  0  0  0
  6  7  4  0  0  0  0
  7  8  1  0  0  0  0
  8  9  4  0  0  0  0
  9 10  4  0  0  0  0
 10 11  4  0  0  0  0
 11 12  4  0  0  0  0
 12 13  4  0  0  0  0
  8 13  4  0  0  0  0
 13 14  1  0  0  0  0
  7 15  4  0  0  0  0
 15 16  4  0  0  0  0
  4 16  4  0  0  0  0
  3 17  4  0  0  0  0
 17 18  4  0  0  0  0
 18 19  4  0  0  0  0
 19 20  4  0  0  0  0
 20 21  4  0  0  0  0
 21 22  1  0  0  0  0
 21 23  4  0  0  0  0
 23 24  4  0  0  0  0
 18 24  4  0  0  0  0
 24 25  4  0  0  0  0
  2 25  4  0  0  0  0
 25 26  1  0  0  0  0
 26 27  2  0  0  0  0
 26 28  1  0  0  0  0
M  END
> <IC50(uM)>
0.165

> <Outcome>
1.0

> <BindingDB ID>
51126172

> <BindingDB MonomerID>
50461859

> <BindingDB Ligand Name>
CHEMBL4224790

> <Curation/DataSource>
ChEMBL

> <Article DOI>
10.1021/acs.jmedchem.7b01862

> <PMID>
29727569

> <Patent Number>
?

> <Authors>
Madak, JT; Cuthbertson, CR; Miyata, Y; Tamura, S; Petrunak, EM; Stuckey, JA; Han, Y; He, M; Sun, D; Showalter, HD; Neamati, N

> <Link to Ligand in BindingDB>
http://www.bindingdb.org/bind/chemsearch/marvin/MolStructure.jsp?monomerid=50461859

> <Link to Ligand-Target Pair in BindingDB>
http://www.bindingdb.org/jsp/dbsearch/PrimarySearch_ki.jsp?energyterm=kJ/mole&tag=r21&monomerid=50461859&enzyme=Dihydroorotate+dehydrogenase&column=ki&startPg=0&Increment=50&submit=Search

> <PubChem CID>
145968738

> <PubChem SID>
433929124

$$$$

  Mrv2115 07222212352D          

 33 35  0  0  0  0            999 V2000
    2.8579   -1.6500    0.0000 C   0  0  0  0  0  0  0  0  0  0  0  0
    3.5724   -2.0625    0.0000 C   0  0  0  0  0  0  0  0  0  0  0  0
    4.2868   -1.6500    0.0000 C   0  0  0  0  0  0  0  0  0  0  0  0
    5.0013   -2.0625    0.0000 C   0  0  0  0  0  0  0  0  0  0  0  0
    5.0013   -2.8875    0.0000 C   0  0  0  0  0  0  0  0  0  0  0  0
    5.7158   -1.6500    0.0000 O   0  0  0  0  0  0  0  0  0  0  0  0
    5.7158   -0.8250    0.0000 C   0  0  0  0  0  0  0  0  0  0  0  0
    5.0013   -0.4125    0.0000 C   0  0  0  0  0  0  0  0  0  0  0  0
    5.0013    0.4125    0.0000 C   0  0  0  0  0  0  0  0  0  0  0  0
    4.2868    0.8250    0.0000 N   0  0  0  0  0  0  0  0  0  0  0  0
    3.5332    0.4894    0.0000 N   0  0  0  0  0  0  0  0  0  0  0  0
    2.9811    1.1025    0.0000 C   0  0  0  0  0  0  0  0  0  0  0  0
    2.1606    1.0163    0.0000 C   0  0  0  0  0  0  0  0  0  0  0  0
    1.6757    1.6837    0.0000 C   0  0  0  0  0  0  0  0  0  0  0  0
    3.3936    1.8170    0.0000 N   0  0  0  0  0  0  0  0  0  0  0  0
    3.0581    2.5707    0.0000 C   0  0  0  0  0  0  0  0  0  0  0  0
    4.2006    1.6455    0.0000 C   0  0  0  0  0  0  0  0  0  0  0  0
    4.8137    2.1975    0.0000 O   0  0  0  0  0  0  0  0  0  0  0  0
    5.7158    0.8250    0.0000 C   0  0  0  0  0  0  0  0  0  0  0  0
    5.7158    1.6500    0.0000 F   0  0  0  0  0  0  0  0  0  0  0  0
    6.4302    0.4125    0.0000 C   0  0  0  0  0  0  0  0  0  0  0  0
    6.4302   -0.4125    0.0000 C   0  0  0  0  0  0  0  0  0  0  0  0
    7.1447   -0.8250    0.0000 C   0  0  0  0  0  0  0  0  0  0  0  0
    7.8592   -0.4125    0.0000 O   0  0  0  0  0  0  0  0  0  0  0  0
    7.1447   -1.6500    0.0000 N   0  0  0  0  0  0  0  0  0  0  0  0
    7.8592   -2.0625    0.0000 C   0  0  0  0  0  0  0  0  0  0  0  0
    8.5737   -1.6500    0.0000 C   0  0  0  0  0  0  0  0  0  0  0  0
    7.8592   -2.8875    0.0000 C   0  0  0  0  0  0  0  0  0  0  0  0
    8.5737   -3.3000    0.0000 C   0  0  0  0  0  0  0  0  0  0  0  0
    8.5737   -4.1250    0.0000 C   0  0  0  0  0  0  0  0  0  0  0  0
    7.8592   -4.5375    0.0000 C   0  0  0  0  0  0  0  0  0  0  0  0
    7.1447   -4.1250    0.0000 C   0  0  0  0  0  0  0  0  0  0  0  0
    7.1447   -3.3000    0.0000 C   0  0  0  0  0  0  0  0  0  0  0  0
  1  2  1  0  0  0  0
  2  3  1  0  0  0  0
  3  4  1  0  0  0  0
  4  5  1  0  0  0  0
  4  6  1  0  0  0  0
  6  7  1  0  0  0  0
  7  8  4  0  0  0  0
  8  9  4  0  0  0  0
  9 10  1  0  0  0  0
 10 11  4  0  0  0  0
 11 12  4  0  0  0  0
 12 13  1  0  0  0  0
 13 14  1  0  0  0  0
 12 15  4  0  0  0  0
 15 16  1  0  0  0  0
 15 17  4  0  0  0  0
 10 17  4  0  0  0  0
 17 18  2  0  0  0  0
  9 19  4  0  0  0  0
 19 20  1  0  0  0  0
 19 21  4  0  0  0  0
 21 22  4  0  0  0  0
  7 22  4  0  0  0  0
 22 23  1  0  0  0  0
 23 24  2  0  0  0  0
 23 25  1  0  0  0  0
 25 26  1  0  0  0  0
 26 27  1  0  0  0  0
 26 28  1  0  0  0  0
 28 29  1  0  0  0  0
 29 30  1  0  0  0  0
 30 31  1  0  0  0  0
 31 32  1  0  0  0  0
 32 33  1  0  0  0  0
 28 33  1  0  0  0  0
M  END
> <IC50(uM)>
0.135

> <Outcome>
1.0

> <BindingDB ID>
1098641; 972487; 1098642; 972488

> <BindingDB MonomerID>
470371

> <BindingDB Ligand Name>
N-(1-cyclohexylethyl)-4-(3-ethyl-4-methyl-5-oxo-4,5-dihydro-1H-1,2,4-triazol-1-yl)-5-fluoro-2-[(2S)-pentan-2-yloxy]benzamide, Mixture of Stereoisomers::US10815215, Example 31::US11130745, Example 31; N-(1-cyclohexylethyl)-4-(3-ethyl-4-methyl-5-oxo-4,5-dihydro-1H-1,2,4-triazol-1-yl)-5-fluoro-2-[(2S)-pentan-2-yloxy]benzamide, Mixture of Stereoisomers::US10815215, Example 31

> <Curation/DataSource>
US Patent

> <Article DOI>
?

> <PMID>
?

> <Patent Number>
US11130745; US10815215

> <Authors>
Gradl, SN; Nguyen, D; Eis, K; Gunther, J; Stellfeld, T; Janzer, A; Christian, S; Muller, T; Sheikh, SE; Sykes, DB; Ferrara, SJ; Krober, M; Merz, C; Niehues, M; Schafer, M; Zimmermann, K; Nising, CF; Gradl, SN; Nguyen, D; Eis, K; Gunther, J; Stellfeld, T; Janzer, A; Christian, S; Muller, T; Sheikh, SE; Zhou, HJ; Zhao, C; Sykes, DB; Ferrara, SJ; Liu, K; Krober, M; Merz, C; Niehues, M; Schafer, M; Zimmermann, K; Nising, CF

> <Link to Ligand in BindingDB>
http://www.bindingdb.org/bind/chemsearch/marvin/MolStructure.jsp?monomerid=470371

> <Link to Ligand-Target Pair in BindingDB>
http://www.bindingdb.org/jsp/dbsearch/PrimarySearch_ki.jsp?energyterm=kJ/mole&tag=r21&monomerid=470371&enzyme=Dihydroorotate+dehydrogenase&column=ki&startPg=0&Increment=50&submit=Search

> <PubChem CID>
134470026

> <PubChem SID>
441609548

$$$$

  Mrv2115 07222212352D          

 27 29  0  0  0  0            999 V2000
    0.0000   -2.4750    0.0000 C   0  0  0  0  0  0  0  0  0  0  0  0
    0.0000   -1.6500    0.0000 O   0  0  0  0  0  0  0  0  0  0  0  0
    0.7145   -1.2375    0.0000 C   0  0  0  0  0  0  0  0  0  0  0  0
    0.7145   -0.4125    0.0000 C   0  0  0  0  0  0  0  0  0  0  0  0
    1.4289    0.0000    0.0000 C   0  0  0  0  0  0  0  0  0  0  0  0
    2.1434   -0.4125    0.0000 C   0  0  0  0  0  0  0  0  0  0  0  0
    2.8579    0.0000    0.0000 C   0  0  0  0  0  0  0  0  0  0  0  0
    3.5724   -0.4125    0.0000 C   0  0  0  0  0  0  0  0  0  0  0  0
    4.2868   -0.0000    0.0000 C   0  0  0  0  0  0  0  0  0  0  0  0
    4.2868    0.8250    0.0000 C   0  0  0  0  0  0  0  0  0  0  0  0
    5.0013    1.2375    0.0000 C   0  0  0  0  0  0  0  0  0  0  0  0
    5.0013    2.0625    0.0000 C   0  0  0  0  0  0  0  0  0  0  0  0
    4.2868    2.4750    0.0000 C   0  0  0  0  0  0  0  0  0  0  0  0
    4.2868    3.3000    0.0000 O   0  0  0  0  0  0  0  0  0  0  0  0
    3.5724    2.0625    0.0000 O   0  0  0  0  0  0  0  0  0  0  0  0
    5.7158    2.4750    0.0000 N   0  0  0  0  0  0  0  0  0  0  0  0
    6.4302    2.0625    0.0000 C   0  0  0  0  0  0  0  0  0  0  0  0
    7.1447    2.4750    0.0000 O   0  0  0  0  0  0  0  0  0  0  0  0
    6.4302    1.2375    0.0000 N   0  0  0  0  0  0  0  0  0  0  0  0
    5.7158    0.8250    0.0000 C   0  0  0  0  0  0  0  0  0  0  0  0
    5.7158   -0.0000    0.0000 O   0  0  0  0  0  0  0  0  0  0  0  0
    3.5724   -1.2375    0.0000 C   0  0  0  0  0  0  0  0  0  0  0  0
    4.2868   -1.6500    0.0000 O   0  0  0  0  0  0  0  0  0  0  0  0
    4.2868   -2.4750    0.0000 C   0  0  0  0  0  0  0  0  0  0  0  0
    2.8579   -1.6500    0.0000 C   0  0  0  0  0  0  0  0  0  0  0  0
    2.1434   -1.2375    0.0000 C   0  0  0  0  0  0  0  0  0  0  0  0
    1.4289   -1.6500    0.0000 C   0  0  0  0  0  0  0  0  0  0  0  0
  1  2  1  0  0  0  0
  2  3  1  0  0  0  0
  3  4  4  0  0  0  0
  4  5  4  0  0  0  0
  5  6  4  0  0  0  0
  6  7  4  0  0  0  0
  7  8  4  0  0  0  0
  8  9  1  0  0  0  0
  9 10  1  0  0  0  0
 10 11  1  0  0  0  0
 11 12  4  0  0  0  0
 12 13  1  0  0  0  0
 13 14  2  0  0  0  0
 13 15  1  0  0  0  0
 12 16  4  0  0  0  0
 16 17  4  0  0  0  0
 17 18  2  0  0  0  0
 17 19  4  0  0  0  0
 19 20  4  0  0  0  0
 11 20  4  0  0  0  0
 20 21  2  0  0  0  0
  8 22  4  0  0  0  0
 22 23  1  0  0  0  0
 23 24  1  0  0  0  0
 22 25  4  0  0  0  0
 25 26  4  0  0  0  0
  6 26  4  0  0  0  0
 26 27  4  0  0  0  0
  3 27  4  0  0  0  0
M  STY  2   1 DAT   2 DAT
M  SAL   1  1  16
M  SDT   1 MRV_IMPLICIT_H                                        
M  SDD   1     0.6482   -0.4125    DR    ALL  0       0  
M  SED   1 IMPL_H1
M  SAL   2  1  19
M  SDT   2 MRV_IMPLICIT_H                                        
M  SDD   2     0.5304   -0.4125    DR    ALL  0       0  
M  SED   2 IMPL_H1
M  END
> <IC50(uM)>
0.048

> <Outcome>
1.0

> <BindingDB ID>
50555390

> <BindingDB MonomerID>
50212059

> <BindingDB Ligand Name>
CHEMBL3945267

> <Curation/DataSource>
ChEMBL

> <Article DOI>
10.1016/j.bmc.2017.01.009

> <PMID>
28118956

> <Patent Number>
?

> <Authors>
Inaoka, DK; Iida, M; Hashimoto, S; Tabuchi, T; Kuranaga, T; Balogun, EO; Honma, T; Tanaka, A; Harada, S; Nara, T; Kita, K; Inoue, M

> <Link to Ligand in BindingDB>
http://www.bindingdb.org/bind/chemsearch/marvin/MolStructure.jsp?monomerid=50212059

> <Link to Ligand-Target Pair in BindingDB>
http://www.bindingdb.org/jsp/dbsearch/PrimarySearch_ki.jsp?energyterm=kJ/mole&tag=r21&monomerid=50212059&enzyme=Dihydroorotate+dehydrogenase&column=ki&startPg=0&Increment=50&submit=Search

> <PubChem CID>
134145423

> <PubChem SID>
375983089

$$$$

  Mrv2115 07222212352D          

 37 41  0  0  0  0            999 V2000
   -1.8659    1.4455    0.0000 C   0  0  0  0  0  0  0  0  0  0  0  0
   -2.6909    1.4455    0.0000 C   0  0  0  0  0  0  0  0  0  0  0  0
   -3.1034    0.7310    0.0000 O   0  0  0  0  0  0  0  0  0  0  0  0
   -2.6909    0.0165    0.0000 C   0  0  0  0  0  0  0  0  0  0  0  0
   -1.8659    0.0165    0.0000 C   0  0  0  0  0  0  0  0  0  0  0  0
   -1.4534   -0.6979    0.0000 C   0  0  0  0  0  0  0  0  0  0  0  0
   -0.6284   -0.6979    0.0000 N   0  0  0  0  0  0  0  0  0  0  0  0
   -0.1435   -1.3654    0.0000 N   0  0  0  0  0  0  0  0  0  0  0  0
    0.6411   -1.1104    0.0000 C   0  0  0  0  0  0  0  0  0  0  0  0
    0.6411   -0.2854    0.0000 N   0  0  0  0  0  0  0  0  0  0  0  0
   -0.1435   -0.0305    0.0000 C   0  0  0  0  0  0  0  0  0  0  0  0
   -0.3984    0.7541    0.0000 O   0  0  0  0  0  0  0  0  0  0  0  0
    1.3556    0.1271    0.0000 C   0  0  0  0  0  0  0  0  0  0  0  0
    2.0701   -0.2854    0.0000 C   0  0  0  0  0  0  0  0  0  0  0  0
    2.0701   -1.1104    0.0000 C   0  0  0  0  0  0  0  0  0  0  0  0
    1.3556   -1.5229    0.0000 C   0  0  0  0  0  0  0  0  0  0  0  0
   -1.8659   -1.4124    0.0000 C   0  0  0  0  0  0  0  0  0  0  0  0
   -1.4534   -2.1269    0.0000 F   0  0  0  0  0  0  0  0  0  0  0  0
   -2.6909   -1.4124    0.0000 C   0  0  0  0  0  0  0  0  0  0  0  0
   -3.1034   -0.6979    0.0000 C   0  0  0  0  0  0  0  0  0  0  0  0
   -3.9284   -0.6979    0.0000 C   0  0  0  0  0  0  0  0  0  0  0  0
   -4.3409    0.0165    0.0000 O   0  0  0  0  0  0  0  0  0  0  0  0
   -4.3409   -1.4124    0.0000 N   0  0  0  0  0  0  0  0  0  0  0  0
   -3.9284   -2.1269    0.0000 C   0  0  0  0  0  0  0  0  0  0  0  0
   -3.1034   -2.1269    0.0000 C   0  0  0  0  0  0  0  0  0  0  0  0
   -2.6909   -2.8414    0.0000 C   0  0  0  0  0  0  0  0  0  0  0  0
   -3.1034   -3.5558    0.0000 C   0  0  0  0  0  0  0  0  0  0  0  0
   -2.6909   -4.2703    0.0000 F   0  0  0  0  0  0  0  0  0  0  0  0
   -3.9284   -3.5558    0.0000 C   0  0  0  0  0  0  0  0  0  0  0  0
   -4.3409   -2.8414    0.0000 C   0  0  0  0  0  0  0  0  0  0  0  0
   -5.1659   -2.8414    0.0000 Cl  0  0  0  0  0  0  0  0  0  0  0  0
   -3.1034    2.1599    0.0000 C   0  0  0  0  0  0  0  0  0  0  0  0
   -3.9284    2.1599    0.0000 C   0  0  0  0  0  0  0  0  0  0  0  0
   -4.3409    2.8744    0.0000 C   0  0  0  0  0  0  0  0  0  0  0  0
   -3.9284    3.5889    0.0000 C   0  0  0  0  0  0  0  0  0  0  0  0
   -3.1034    3.5889    0.0000 C   0  0  0  0  0  0  0  0  0  0  0  0
   -2.6909    2.8744    0.0000 C   0  0  0  0  0  0  0  0  0  0  0  0
  1  2  1  0  0  0  0
  2  3  1  0  0  0  0
  3  4  1  0  0  0  0
  4  5  4  0  0  0  0
  5  6  4  0  0  0  0
  6  7  1  0  0  0  0
  7  8  4  0  0  0  0
  8  9  4  0  0  0  0
  9 10  4  0  0  0  0
 10 11  4  0  0  0  0
  7 11  4  0  0  0  0
 11 12  2  0  0  0  0
 10 13  1  0  0  0  0
 13 14  1  0  0  0  0
 14 15  1  0  0  0  0
 15 16  1  0  0  0  0
  9 16  1  0  0  0  0
  6 17  4  0  0  0  0
 17 18  1  0  0  0  0
 17 19  4  0  0  0  0
 19 20  4  0  0  0  0
  4 20  4  0  0  0  0
 20 21  1  0  0  0  0
 21 22  2  0  0  0  0
 21 23  1  0  0  0  0
 23 24  1  0  0  0  0
 24 25  4  0  0  0  0
 25 26  4  0  0  0  0
 26 27  4  0  0  0  0
 27 28  1  0  0  0  0
 27 29  4  0  0  0  0
 29 30  4  0  0  0  0
 24 30  4  0  0  0  0
 30 31  1  0  0  0  0
  2 32  1  0  0  0  0
 32 33  1  0  0  0  0
 33 34  1  0  0  0  0
 34 35  1  0  0  0  0
 35 36  1  0  0  0  0
 36 37  1  0  0  0  0
 32 37  1  0  0  0  0
M  END
> <IC50(uM)>
0.03

> <Outcome>
1.0

> <BindingDB ID>
1020572

> <BindingDB MonomerID>
490511

> <BindingDB Ligand Name>
N-(2-chloro-4-fluorophenyl)-2-[(1S)-1-cyclohexylethoxy]-5-fluoro-4-(3-oxo-5,6,7,8-tetrahydro-[1,2,4]triazolo[4,3-a]pyridin-2(3H)-yl)benzamide::US10968216, Example 179

> <Curation/DataSource>
US Patent

> <Article DOI>
?

> <PMID>
?

> <Patent Number>
US10968216

> <Authors>
Gradl, SN; Nguyen, D; Eis, K; Gunther, J; Stellfeld, T; Janzer, A; Christian, S; Mueller, T; Sheikh, SE; Zhou, HJ; Zhao, C; Sykes, DB; Ferrara, SJ; Liu, K; Herbert, SA; Merz, C; Niehues, M; Nising, CF; Schafer, M; Zimmermann, K; Knablein, J; Thede, K; Faupel, T

> <Link to Ligand in BindingDB>
http://www.bindingdb.org/bind/chemsearch/marvin/MolStructure.jsp?monomerid=490511

> <Link to Ligand-Target Pair in BindingDB>
http://www.bindingdb.org/jsp/dbsearch/PrimarySearch_ki.jsp?energyterm=kJ/mole&tag=r21&monomerid=490511&enzyme=Dihydroorotate+dehydrogenase&column=ki&startPg=0&Increment=50&submit=Search

> <PubChem CID>
134474012

> <PubChem SID>
447117238

$$$$

  Mrv2115 07222212352D          

 22 25  0  0  0  0            999 V2000
    0.9130   -0.8764    0.0000 N   0  0  0  0  0  0  0  0  0  0  0  0
    1.7200   -1.0479    0.0000 C   0  0  0  0  0  0  0  0  0  0  0  0
    2.2720   -0.4349    0.0000 N   0  0  0  0  0  0  0  0  0  0  0  0
    3.0790   -0.6064    0.0000 C   0  0  0  0  0  0  0  0  0  0  0  0
    3.7464   -0.1215    0.0000 C   0  0  0  0  0  0  0  0  0  0  0  0
    4.4139   -0.6064    0.0000 C   0  0  0  0  0  0  0  0  0  0  0  0
    5.2208   -0.4349    0.0000 C   0  0  0  0  0  0  0  0  0  0  0  0
    5.7729   -1.0479    0.0000 C   0  0  0  0  0  0  0  0  0  0  0  0
    5.5179   -1.8326    0.0000 C   0  0  0  0  0  0  0  0  0  0  0  0
    4.7110   -2.0041    0.0000 C   0  0  0  0  0  0  0  0  0  0  0  0
    4.1589   -1.3910    0.0000 C   0  0  0  0  0  0  0  0  0  0  0  0
    3.3339   -1.3910    0.0000 C   0  0  0  0  0  0  0  0  0  0  0  0
    2.7819   -2.0041    0.0000 C   0  0  0  0  0  0  0  0  0  0  0  0
    3.0368   -2.7887    0.0000 N   0  0  0  0  0  0  0  0  0  0  0  0
    2.4848   -3.4018    0.0000 C   0  0  0  0  0  0  0  0  0  0  0  0
    2.7397   -4.1864    0.0000 C   0  0  0  0  0  0  0  0  0  0  0  0
    2.1877   -4.7995    0.0000 C   0  0  0  0  0  0  0  0  0  0  0  0
    1.3807   -4.6280    0.0000 C   0  0  0  0  0  0  0  0  0  0  0  0
    1.1258   -3.8434    0.0000 C   0  0  0  0  0  0  0  0  0  0  0  0
    0.3188   -3.6718    0.0000 Br  0  0  0  0  0  0  0  0  0  0  0  0
    1.6778   -3.2303    0.0000 C   0  0  0  0  0  0  0  0  0  0  0  0
    1.9749   -1.8326    0.0000 N   0  0  0  0  0  0  0  0  0  0  0  0
  1  2  1  0  0  0  0
  2  3  4  0  0  0  0
  3  4  4  0  0  0  0
  4  5  4  0  0  0  0
  5  6  4  0  0  0  0
  6  7  4  0  0  0  0
  7  8  4  0  0  0  0
  8  9  4  0  0  0  0
  9 10  4  0  0  0  0
 10 11  4  0  0  0  0
  6 11  4  0  0  0  0
 11 12  4  0  0  0  0
  4 12  1  0  0  0  0
 12 13  4  0  0  0  0
 13 14  1  0  0  0  0
 14 15  1  0  0  0  0
 15 16  4  0  0  0  0
 16 17  4  0  0  0  0
 17 18  4  0  0  0  0
 18 19  4  0  0  0  0
 19 20  1  0  0  0  0
 19 21  4  0  0  0  0
 15 21  4  0  0  0  0
 13 22  4  0  0  0  0
  2 22  4  0  0  0  0
M  STY  1   1 DAT
M  SAL   1  1  22
M  SDT   1 MRV_IMPLICIT_H                                        
M  SDD   1     0.5304   -0.4125    DR    ALL  0       0  
M  SED   1 IMPL_H1
M  END
> <IC50(uM)>
200.0

> <Outcome>
0.0

> <BindingDB ID>
50944727

> <BindingDB MonomerID>
50387415

> <BindingDB Ligand Name>
CHEMBL2047248

> <Curation/DataSource>
ChEMBL

> <Article DOI>
10.1016/j.bmc.2012.05.068

> <PMID>
22739090

> <Patent Number>
?

> <Authors>
Gangjee, A; Zhao, Y; Ihnat, MA; Thorpe, JE; Bailey-Downs, LC; Kisliuk, RL

> <Link to Ligand in BindingDB>
http://www.bindingdb.org/bind/chemsearch/marvin/MolStructure.jsp?monomerid=50387415

> <Link to Ligand-Target Pair in BindingDB>
http://www.bindingdb.org/jsp/dbsearch/PrimarySearch_ki.jsp?energyterm=kJ/mole&tag=r21&monomerid=50387415&enzyme=Dihydroorotate+dehydrogenase&column=ki&startPg=0&Increment=50&submit=Search

> <PubChem CID>
90878630

> <PubChem SID>
160866498

$$$$

  Mrv2115 07222212352D          

 19 20  0  0  0  0            999 V2000
    2.0367   -0.4741    0.0000 C   0  0  0  0  0  0  0  0  0  0  0  0
    2.0367   -1.2991    0.0000 C   0  0  0  0  0  0  0  0  0  0  0  0
    1.3693   -1.7840    0.0000 N   0  0  0  0  0  0  0  0  0  0  0  0
    1.6242   -2.5687    0.0000 N   0  0  0  0  0  0  0  0  0  0  0  0
    2.4492   -2.5687    0.0000 C   0  0  0  0  0  0  0  0  0  0  0  0
    2.9341   -3.2361    0.0000 N   0  0  0  0  0  0  0  0  0  0  0  0
    2.5986   -3.9898    0.0000 C   0  0  0  0  0  0  0  0  0  0  0  0
    3.0835   -4.6572    0.0000 C   0  0  0  0  0  0  0  0  0  0  0  0
    2.7479   -5.4109    0.0000 C   0  0  0  0  0  0  0  0  0  0  0  0
    1.9275   -5.4971    0.0000 C   0  0  0  0  0  0  0  0  0  0  0  0
    1.4425   -4.8297    0.0000 C   0  0  0  0  0  0  0  0  0  0  0  0
    1.7781   -4.0760    0.0000 C   0  0  0  0  0  0  0  0  0  0  0  0
    1.2932   -3.4086    0.0000 C   0  0  0  0  0  0  0  0  0  0  0  0
    0.8082   -2.7411    0.0000 F   0  0  0  0  0  0  0  0  0  0  0  0
    1.9606   -2.9236    0.0000 F   0  0  0  0  0  0  0  0  0  0  0  0
    0.6257   -3.8935    0.0000 F   0  0  0  0  0  0  0  0  0  0  0  0
    2.7041   -1.7840    0.0000 C   0  0  0  0  0  0  0  0  0  0  0  0
    3.4888   -1.5291    0.0000 C   0  0  0  0  0  0  0  0  0  0  0  0
    4.2734   -1.2742    0.0000 N   0  0  0  0  0  0  0  0  0  0  0  0
  1  2  1  0  0  0  0
  2  3  4  0  0  0  0
  3  4  4  0  0  0  0
  4  5  4  0  0  0  0
  5  6  1  0  0  0  0
  6  7  1  0  0  0  0
  7  8  4  0  0  0  0
  8  9  4  0  0  0  0
  9 10  4  0  0  0  0
 10 11  4  0  0  0  0
 11 12  4  0  0  0  0
  7 12  4  0  0  0  0
 12 13  1  0  0  0  0
 13 14  1  0  0  0  0
 13 15  1  0  0  0  0
 13 16  1  0  0  0  0
  5 17  4  0  0  0  0
  2 17  4  0  0  0  0
 17 18  1  0  0  0  0
 18 19  3  0  0  0  0
M  STY  1   1 DAT
M  SAL   1  1   4
M  SDT   1 MRV_IMPLICIT_H                                        
M  SDD   1     0.5304   -0.4125    DR    ALL  0       0  
M  SED   1 IMPL_H1
M  END
> <IC50(uM)>
50.0

> <Outcome>
0.0

> <BindingDB ID>
50786777

> <BindingDB MonomerID>
50066593

> <BindingDB Ligand Name>
5-Methyl-3-(2-trifluoromethyl-phenylamino)-1H-pyrazole-4-carbonitrile::CHEMBL118455

> <Curation/DataSource>
ChEMBL

> <Article DOI>
10.1021/jm981028c

> <PMID>
9719606

> <Patent Number>
?

> <Authors>
Papageorgiou, C; Albert, R; Floersheim, P; Lemaire, M; Bitch, F; Weber, HP; Andersen, E; Hungerford, V; Schreier, MH

> <Link to Ligand in BindingDB>
http://www.bindingdb.org/bind/chemsearch/marvin/MolStructure.jsp?monomerid=50066593

> <Link to Ligand-Target Pair in BindingDB>
http://www.bindingdb.org/jsp/dbsearch/PrimarySearch_ki.jsp?energyterm=kJ/mole&tag=r21&monomerid=50066593&enzyme=Dihydroorotate+dehydrogenase&column=ki&startPg=0&Increment=50&submit=Search

> <PubChem CID>
10587807

> <PubChem SID>
103961213

$$$$

  Mrv2115 07222212352D          

 33 36  0  0  0  0            999 V2000
    0.7145   -2.8875    0.0000 C   0  0  0  0  0  0  0  0  0  0  0  0
    0.0000   -2.4750    0.0000 C   0  0  0  0  0  0  0  0  0  0  0  0
   -0.7145   -2.8875    0.0000 C   0  0  0  0  0  0  0  0  0  0  0  0
   -1.4289   -2.4750    0.0000 C   0  0  0  0  0  0  0  0  0  0  0  0
   -1.4289   -1.6500    0.0000 N   0  0  0  0  0  0  0  0  0  0  0  0
   -0.7145   -1.2375    0.0000 C   0  0  0  0  0  0  0  0  0  0  0  0
   -0.7145   -0.4125    0.0000 Cl  0  0  0  0  0  0  0  0  0  0  0  0
    0.0000   -1.6500    0.0000 C   0  0  0  0  0  0  0  0  0  0  0  0
    0.7145   -1.2375    0.0000 C   0  0  0  0  0  0  0  0  0  0  0  0
    0.7145   -0.4125    0.0000 C   0  0  0  0  0  0  0  0  0  0  0  0
    1.4289    0.0000    0.0000 C   0  0  0  0  0  0  0  0  0  0  0  0
    1.4289    0.8250    0.0000 C   0  0  0  0  0  0  0  0  0  0  0  0
    2.1434    1.2375    0.0000 C   0  0  0  0  0  0  0  0  0  0  0  0
    0.7145    1.2375    0.0000 C   0  0  0  0  0  0  0  0  0  0  0  0
    2.1434   -0.4125    0.0000 C   0  0  0  0  0  0  0  0  0  0  0  0
    2.8579    0.0000    0.0000 C   0  0  0  0  0  0  0  0  0  0  0  0
    3.5724   -0.4125    0.0000 C   0  0  0  0  0  0  0  0  0  0  0  0
    4.2868   -0.0000    0.0000 C   0  0  0  0  0  0  0  0  0  0  0  0
    4.3731    0.8205    0.0000 C   0  0  0  0  0  0  0  0  0  0  0  0
    5.1800    0.9920    0.0000 N   0  0  0  0  0  0  0  0  0  0  0  0
    5.5156    1.7457    0.0000 C   0  0  0  0  0  0  0  0  0  0  0  0
    5.5925    0.2775    0.0000 C   0  0  0  0  0  0  0  0  0  0  0  0
    6.4130    0.1913    0.0000 C   0  0  0  0  0  0  0  0  0  0  0  0
    7.2335    0.1051    0.0000 C   0  0  0  0  0  0  0  0  0  0  0  0
    6.3268   -0.6292    0.0000 C   0  0  0  0  0  0  0  0  0  0  0  0
    6.4993    1.0118    0.0000 O   0  0  0  0  0  0  0  0  0  0  0  0
    5.0405   -0.3356    0.0000 N   0  0  0  0  0  0  0  0  0  0  0  0
    3.5724   -1.2375    0.0000 C   0  0  0  0  0  0  0  0  0  0  0  0
    4.2868   -1.6500    0.0000 F   0  0  0  0  0  0  0  0  0  0  0  0
    2.8579   -1.6500    0.0000 C   0  0  0  0  0  0  0  0  0  0  0  0
    2.1434   -1.2375    0.0000 N   0  0  0  0  0  0  0  0  0  0  0  0
    1.4289   -1.6500    0.0000 C   0  0  0  0  0  0  0  0  0  0  0  0
    1.4289   -2.4750    0.0000 O   0  0  0  0  0  0  0  0  0  0  0  0
  1  2  1  0  0  0  0
  2  3  4  0  0  0  0
  3  4  4  0  0  0  0
  4  5  4  0  0  0  0
  5  6  4  0  0  0  0
  6  7  1  0  0  0  0
  6  8  4  0  0  0  0
  2  8  4  0  0  0  0
  8  9  1  0  0  0  0
  9 10  4  0  0  0  0
 10 11  4  0  0  0  0
 11 12  1  0  0  0  0
 12 13  1  0  0  0  0
 12 14  1  0  0  0  0
 11 15  4  0  0  0  0
 15 16  4  0  0  0  0
 16 17  4  0  0  0  0
 17 18  1  0  0  0  0
 18 19  4  0  0  0  0
 19 20  4  0  0  0  0
 20 21  1  0  0  0  0
 20 22  4  0  0  0  0
 22 23  1  0  0  0  0
 23 24  1  0  0  0  0
 23 25  1  0  0  0  0
 23 26  1  0  0  0  0
 22 27  4  0  0  0  0
 18 27  4  0  0  0  0
 17 28  4  0  0  0  0
 28 29  1  0  0  0  0
 28 30  4  0  0  0  0
 30 31  4  0  0  0  0
 15 31  4  0  0  0  0
 31 32  4  0  0  0  0
  9 32  4  0  0  0  0
 32 33  2  0  0  0  0
M  END
> <IC50(uM)>
0.013

> <Outcome>
1.0

> <BindingDB ID>
1121404

> <BindingDB MonomerID>
530470

> <BindingDB Ligand Name>
3-(2-Chloro-4-methylpyridin-3-yl)-7-fluoro-8-(2-(2-hydroxypropan-2-yl)-1-methyl- 1H-imidazol-4-yl)-1-isopropyl-4H-quinolizin-4-one.::WO2022070071, Example 8

> <Curation/DataSource>
Curated from the literature by BindingDB

> <Article DOI>
?

> <PMID>
WO2022070071

> <Patent Number>
?

> <Authors>
Lindsey, D; Scott, K

> <Link to Ligand in BindingDB>
http://www.bindingdb.org/bind/chemsearch/marvin/MolStructure.jsp?monomerid=530470

> <Link to Ligand-Target Pair in BindingDB>
http://www.bindingdb.org/jsp/dbsearch/PrimarySearch_ki.jsp?energyterm=kJ/mole&tag=r21&monomerid=530470&enzyme=Dihydroorotate+dehydrogenase&column=ki&startPg=0&Increment=50&submit=Search

> <PubChem CID>
?

> <PubChem SID>
?

$$$$

  Mrv2115 07222212352D          

 37 40  0  0  0  0            999 V2000
   -3.1034    2.1599    0.0000 C   0  0  0  0  0  0  0  0  0  0  0  0
   -2.6909    1.4455    0.0000 C   0  0  0  0  0  0  0  0  0  0  0  0
   -3.1034    0.7310    0.0000 O   0  0  0  0  0  0  0  0  0  0  0  0
   -2.6909    0.0165    0.0000 C   0  0  0  0  0  0  0  0  0  0  0  0
   -1.8659    0.0165    0.0000 C   0  0  0  0  0  0  0  0  0  0  0  0
   -1.4534   -0.6979    0.0000 C   0  0  0  0  0  0  0  0  0  0  0  0
   -0.6284   -0.6979    0.0000 N   0  0  0  0  0  0  0  0  0  0  0  0
   -0.1435   -1.3654    0.0000 N   0  0  0  0  0  0  0  0  0  0  0  0
    0.6411   -1.1104    0.0000 C   0  0  0  0  0  0  0  0  0  0  0  0
    0.6411   -0.2854    0.0000 N   0  0  0  0  0  0  0  0  0  0  0  0
   -0.1435   -0.0305    0.0000 C   0  0  0  0  0  0  0  0  0  0  0  0
   -0.3984    0.7541    0.0000 O   0  0  0  0  0  0  0  0  0  0  0  0
    1.3556    0.1271    0.0000 C   0  0  0  0  0  0  0  0  0  0  0  0
    2.0701   -0.2854    0.0000 C   0  0  0  0  0  0  0  0  0  0  0  0
    2.0701   -1.1104    0.0000 C   0  0  0  0  0  0  0  0  0  0  0  0
    1.3556   -1.5229    0.0000 S   0  0  0  0  0  0  0  0  0  0  0  0
    1.7429   -2.2514    0.0000 N   0  0  0  0  0  0  0  0  0  0  0  0
    0.9683   -2.2514    0.0000 O   0  0  0  0  0  0  0  0  0  0  0  0
   -1.8659   -1.4124    0.0000 C   0  0  0  0  0  0  0  0  0  0  0  0
   -1.4534   -2.1269    0.0000 F   0  0  0  0  0  0  0  0  0  0  0  0
   -2.6909   -1.4124    0.0000 C   0  0  0  0  0  0  0  0  0  0  0  0
   -3.1034   -0.6979    0.0000 C   0  0  0  0  0  0  0  0  0  0  0  0
   -3.9284   -0.6979    0.0000 C   0  0  0  0  0  0  0  0  0  0  0  0
   -4.3409    0.0165    0.0000 O   0  0  0  0  0  0  0  0  0  0  0  0
   -4.3409   -1.4124    0.0000 N   0  0  0  0  0  0  0  0  0  0  0  0
   -5.1659   -1.4124    0.0000 C   0  0  0  0  0  0  0  0  0  0  0  0
   -5.5784   -2.1269    0.0000 C   0  0  0  0  0  0  0  0  0  0  0  0
   -5.1659   -2.8414    0.0000 F   0  0  0  0  0  0  0  0  0  0  0  0
   -6.4034   -2.1269    0.0000 C   0  0  0  0  0  0  0  0  0  0  0  0
   -6.8159   -1.4124    0.0000 C   0  0  0  0  0  0  0  0  0  0  0  0
   -6.4034   -0.6979    0.0000 C   0  0  0  0  0  0  0  0  0  0  0  0
   -5.5784   -0.6979    0.0000 C   0  0  0  0  0  0  0  0  0  0  0  0
   -5.1659    0.0165    0.0000 F   0  0  0  0  0  0  0  0  0  0  0  0
   -1.8659    1.4455    0.0000 C   0  0  0  0  0  0  0  0  0  0  0  0
   -1.8659    0.6205    0.0000 F   0  0  0  0  0  0  0  0  0  0  0  0
   -1.8659    2.2705    0.0000 F   0  0  0  0  0  0  0  0  0  0  0  0
   -1.0409    1.4455    0.0000 F   0  0  0  0  0  0  0  0  0  0  0  0
  1  2  1  0  0  0  0
  2  3  1  0  0  0  0
  3  4  1  0  0  0  0
  4  5  4  0  0  0  0
  5  6  4  0  0  0  0
  6  7  1  0  0  0  0
  7  8  4  0  0  0  0
  8  9  4  0  0  0  0
  9 10  4  0  0  0  0
 10 11  4  0  0  0  0
  7 11  4  0  0  0  0
 11 12  2  0  0  0  0
 10 13  1  0  0  0  0
 13 14  1  0  0  0  0
 14 15  1  0  0  0  0
 15 16  1  0  0  0  0
  9 16  1  0  0  0  0
 16 17  2  0  0  0  0
 16 18  2  0  0  0  0
  6 19  4  0  0  0  0
 19 20  1  0  0  0  0
 19 21  4  0  0  0  0
 21 22  4  0  0  0  0
  4 22  4  0  0  0  0
 22 23  1  0  0  0  0
 23 24  2  0  0  0  0
 23 25  1  0  0  0  0
 25 26  1  0  0  0  0
 26 27  4  0  0  0  0
 27 28  1  0  0  0  0
 27 29  4  0  0  0  0
 29 30  4  0  0  0  0
 30 31  4  0  0  0  0
 31 32  4  0  0  0  0
 26 32  4  0  0  0  0
 32 33  1  0  0  0  0
  2 34  1  0  0  0  0
 34 35  1  0  0  0  0
 34 36  1  0  0  0  0
 34 37  1  0  0  0  0
M  END
> <IC50(uM)>
4.5

> <Outcome>
0.0

> <BindingDB ID>
1020698

> <BindingDB MonomerID>
490624

> <BindingDB Ligand Name>
N-(2,6-difluorophenyl)-5-fluoro-4-(8-imino-3,8-dioxo-5,6,7,8-tetrahydro-8&#955;6-[1,2,4]triazolo-[3,4-b][1,3]thiazin-2(3H)-yl)-2-{[(2S)-1,1,1-trifluoropropan-2-yl]oxy}benzamide::US10968216, Example 292

> <Curation/DataSource>
US Patent

> <Article DOI>
?

> <PMID>
?

> <Patent Number>
US10968216

> <Authors>
Gradl, SN; Nguyen, D; Eis, K; Gunther, J; Stellfeld, T; Janzer, A; Christian, S; Mueller, T; Sheikh, SE; Zhou, HJ; Zhao, C; Sykes, DB; Ferrara, SJ; Liu, K; Herbert, SA; Merz, C; Niehues, M; Nising, CF; Schafer, M; Zimmermann, K; Knablein, J; Thede, K; Faupel, T

> <Link to Ligand in BindingDB>
http://www.bindingdb.org/bind/chemsearch/marvin/MolStructure.jsp?monomerid=490624

> <Link to Ligand-Target Pair in BindingDB>
http://www.bindingdb.org/jsp/dbsearch/PrimarySearch_ki.jsp?energyterm=kJ/mole&tag=r21&monomerid=490624&enzyme=Dihydroorotate+dehydrogenase&column=ki&startPg=0&Increment=50&submit=Search

> <PubChem CID>
134474539

> <PubChem SID>
447117350

$$$$

  Mrv2115 07222212352D          

 35 39  0  0  0  0            999 V2000
    4.0668    2.3479    0.0000 C   0  0  0  0  0  0  0  0  0  0  0  0
    3.3523    1.9354    0.0000 C   0  0  0  0  0  0  0  0  0  0  0  0
    3.3523    1.1104    0.0000 C   0  0  0  0  0  0  0  0  0  0  0  0
    2.6378    0.6979    0.0000 C   0  0  0  0  0  0  0  0  0  0  0  0
    2.6378   -0.1271    0.0000 C   0  0  0  0  0  0  0  0  0  0  0  0
    1.9233   -0.5396    0.0000 O   0  0  0  0  0  0  0  0  0  0  0  0
    3.3523   -0.5396    0.0000 O   0  0  0  0  0  0  0  0  0  0  0  0
    1.9233    1.1104    0.0000 C   0  0  0  0  0  0  0  0  0  0  0  0
    1.1387    0.8555    0.0000 N   0  0  0  0  0  0  0  0  0  0  0  0
    0.6538    1.5229    0.0000 C   0  0  0  0  0  0  0  0  0  0  0  0
   -0.1712    1.5229    0.0000 C   0  0  0  0  0  0  0  0  0  0  0  0
   -0.5837    0.8085    0.0000 C   0  0  0  0  0  0  0  0  0  0  0  0
   -1.4087    0.8085    0.0000 C   0  0  0  0  0  0  0  0  0  0  0  0
   -1.8212    1.5229    0.0000 C   0  0  0  0  0  0  0  0  0  0  0  0
   -2.6462    1.5229    0.0000 C   0  0  0  0  0  0  0  0  0  0  0  0
   -3.0587    0.8085    0.0000 C   0  0  0  0  0  0  0  0  0  0  0  0
   -3.8837    0.8085    0.0000 C   0  0  0  0  0  0  0  0  0  0  0  0
   -4.2962    1.5229    0.0000 C   0  0  0  0  0  0  0  0  0  0  0  0
   -5.1212    1.5229    0.0000 O   0  0  0  0  0  0  0  0  0  0  0  0
   -5.5337    2.2374    0.0000 C   0  0  0  0  0  0  0  0  0  0  0  0
   -5.1212    2.9519    0.0000 C   0  0  0  0  0  0  0  0  0  0  0  0
   -5.5337    3.6664    0.0000 C   0  0  0  0  0  0  0  0  0  0  0  0
   -6.3587    3.6664    0.0000 C   0  0  0  0  0  0  0  0  0  0  0  0
   -6.7712    2.9519    0.0000 C   0  0  0  0  0  0  0  0  0  0  0  0
   -6.3587    2.2374    0.0000 C   0  0  0  0  0  0  0  0  0  0  0  0
   -6.7712    1.5229    0.0000 C   0  0  0  0  0  0  0  0  0  0  0  0
   -6.3587    0.8085    0.0000 O   0  0  0  0  0  0  0  0  0  0  0  0
   -7.5962    1.5229    0.0000 O   0  0  0  0  0  0  0  0  0  0  0  0
   -3.8837    2.2374    0.0000 C   0  0  0  0  0  0  0  0  0  0  0  0
   -3.0587    2.2374    0.0000 C   0  0  0  0  0  0  0  0  0  0  0  0
   -1.4087    2.2374    0.0000 C   0  0  0  0  0  0  0  0  0  0  0  0
   -0.5837    2.2374    0.0000 C   0  0  0  0  0  0  0  0  0  0  0  0
    1.1387    2.1904    0.0000 N   0  0  0  0  0  0  0  0  0  0  0  0
    1.9233    1.9354    0.0000 C   0  0  0  0  0  0  0  0  0  0  0  0
    2.6378    2.3479    0.0000 C   0  0  0  0  0  0  0  0  0  0  0  0
  1  2  1  0  0  0  0
  2  3  4  0  0  0  0
  3  4  4  0  0  0  0
  4  5  1  0  0  0  0
  5  6  2  0  0  0  0
  5  7  1  0  0  0  0
  4  8  4  0  0  0  0
  8  9  4  0  0  0  0
  9 10  4  0  0  0  0
 10 11  1  0  0  0  0
 11 12  4  0  0  0  0
 12 13  4  0  0  0  0
 13 14  4  0  0  0  0
 14 15  1  0  0  0  0
 15 16  4  0  0  0  0
 16 17  4  0  0  0  0
 17 18  4  0  0  0  0
 18 19  1  0  0  0  0
 19 20  1  0  0  0  0
 20 21  4  0  0  0  0
 21 22  4  0  0  0  0
 22 23  4  0  0  0  0
 23 24  4  0  0  0  0
 24 25  4  0  0  0  0
 20 25  4  0  0  0  0
 25 26  1  0  0  0  0
 26 27  2  0  0  0  0
 26 28  1  0  0  0  0
 18 29  4  0  0  0  0
 29 30  4  0  0  0  0
 15 30  4  0  0  0  0
 14 31  4  0  0  0  0
 31 32  4  0  0  0  0
 11 32  4  0  0  0  0
 10 33  4  0  0  0  0
 33 34  4  0  0  0  0
  8 34  4  0  0  0  0
 34 35  4  0  0  0  0
  2 35  4  0  0  0  0
M  STY  1   1 DAT
M  SAL   1  1  33
M  SDT   1 MRV_IMPLICIT_H                                        
M  SDD   1     0.5304   -0.4125    DR    ALL  0       0  
M  SED   1 IMPL_H1
M  END
> <IC50(uM)>
2.24

> <Outcome>
0.0

> <BindingDB ID>
297839

> <BindingDB MonomerID>
155495

> <BindingDB Ligand Name>
US9006454, I137

> <Curation/DataSource>
US Patent

> <Article DOI>
?

> <PMID>
?

> <Patent Number>
US9006454

> <Authors>
Thunuguntla, SS; Subramanya, H; Kunnam, SR; Sanivaru Vijay, SR; Bingi, C; Kusanur, R; Schwarz, M; Arlt, M

> <Link to Ligand in BindingDB>
http://www.bindingdb.org/bind/chemsearch/marvin/MolStructure.jsp?monomerid=155495

> <Link to Ligand-Target Pair in BindingDB>
http://www.bindingdb.org/jsp/dbsearch/PrimarySearch_ki.jsp?energyterm=kJ/mole&tag=r21&monomerid=155495&enzyme=Dihydroorotate+dehydrogenase&column=ki&startPg=0&Increment=50&submit=Search

> <PubChem CID>
58073860

> <PubChem SID>
253658432

$$$$

  Mrv2115 07222212352D          

 35 38  0  0  0  0            999 V2000
   -3.1034    2.1599    0.0000 C   0  0  0  0  0  0  0  0  0  0  0  0
   -2.6909    1.4455    0.0000 C   0  0  0  0  0  0  0  0  0  0  0  0
   -3.1034    0.7310    0.0000 O   0  0  0  0  0  0  0  0  0  0  0  0
   -2.6909    0.0165    0.0000 C   0  0  0  0  0  0  0  0  0  0  0  0
   -1.8659    0.0165    0.0000 C   0  0  0  0  0  0  0  0  0  0  0  0
   -1.4534   -0.6979    0.0000 C   0  0  0  0  0  0  0  0  0  0  0  0
   -0.6284   -0.6979    0.0000 N   0  0  0  0  0  0  0  0  0  0  0  0
   -0.1435   -1.3654    0.0000 N   0  0  0  0  0  0  0  0  0  0  0  0
    0.6411   -1.1104    0.0000 C   0  0  0  0  0  0  0  0  0  0  0  0
    0.6411   -0.2854    0.0000 N   0  0  0  0  0  0  0  0  0  0  0  0
   -0.1435   -0.0305    0.0000 C   0  0  0  0  0  0  0  0  0  0  0  0
   -0.3984    0.7541    0.0000 O   0  0  0  0  0  0  0  0  0  0  0  0
    1.3556    0.1271    0.0000 C   0  0  0  0  0  0  0  0  0  0  0  0
    2.0701   -0.2854    0.0000 C   0  0  0  0  0  0  0  0  0  0  0  0
    2.0701   -1.1104    0.0000 C   0  0  0  0  0  0  0  0  0  0  0  0
    1.3556   -1.5229    0.0000 C   0  0  0  0  0  0  0  0  0  0  0  0
   -1.8659   -1.4124    0.0000 C   0  0  0  0  0  0  0  0  0  0  0  0
   -1.4534   -2.1269    0.0000 F   0  0  0  0  0  0  0  0  0  0  0  0
   -2.6909   -1.4124    0.0000 C   0  0  0  0  0  0  0  0  0  0  0  0
   -3.1034   -0.6979    0.0000 C   0  0  0  0  0  0  0  0  0  0  0  0
   -3.9284   -0.6979    0.0000 C   0  0  0  0  0  0  0  0  0  0  0  0
   -4.3409    0.0165    0.0000 O   0  0  0  0  0  0  0  0  0  0  0  0
   -4.3409   -1.4124    0.0000 N   0  0  0  0  0  0  0  0  0  0  0  0
   -5.1659   -1.4124    0.0000 C   0  0  0  0  0  0  0  0  0  0  0  0
   -5.5784   -2.1269    0.0000 C   0  0  0  0  0  0  0  0  0  0  0  0
   -6.4034   -2.1269    0.0000 C   0  0  0  0  0  0  0  0  0  0  0  0
   -6.8159   -1.4124    0.0000 C   0  0  0  0  0  0  0  0  0  0  0  0
   -6.4034   -0.6979    0.0000 C   0  0  0  0  0  0  0  0  0  0  0  0
   -6.8159    0.0165    0.0000 F   0  0  0  0  0  0  0  0  0  0  0  0
   -5.5784   -0.6979    0.0000 C   0  0  0  0  0  0  0  0  0  0  0  0
   -5.1659    0.0165    0.0000 Cl  0  0  0  0  0  0  0  0  0  0  0  0
   -1.8659    1.4455    0.0000 C   0  0  0  0  0  0  0  0  0  0  0  0
   -1.8659    0.6205    0.0000 F   0  0  0  0  0  0  0  0  0  0  0  0
   -1.8659    2.2705    0.0000 F   0  0  0  0  0  0  0  0  0  0  0  0
   -1.0409    1.4455    0.0000 F   0  0  0  0  0  0  0  0  0  0  0  0
  1  2  1  0  0  0  0
  2  3  1  0  0  0  0
  3  4  1  0  0  0  0
  4  5  4  0  0  0  0
  5  6  4  0  0  0  0
  6  7  1  0  0  0  0
  7  8  4  0  0  0  0
  8  9  4  0  0  0  0
  9 10  4  0  0  0  0
 10 11  4  0  0  0  0
  7 11  4  0  0  0  0
 11 12  2  0  0  0  0
 10 13  1  0  0  0  0
 13 14  1  0  0  0  0
 14 15  1  0  0  0  0
 15 16  1  0  0  0  0
  9 16  1  0  0  0  0
  6 17  4  0  0  0  0
 17 18  1  0  0  0  0
 17 19  4  0  0  0  0
 19 20  4  0  0  0  0
  4 20  4  0  0  0  0
 20 21  1  0  0  0  0
 21 22  2  0  0  0  0
 21 23  1  0  0  0  0
 23 24  1  0  0  0  0
 24 25  4  0  0  0  0
 25 26  4  0  0  0  0
 26 27  4  0  0  0  0
 27 28  4  0  0  0  0
 28 29  1  0  0  0  0
 28 30  4  0  0  0  0
 24 30  4  0  0  0  0
 30 31  1  0  0  0  0
  2 32  1  0  0  0  0
 32 33  1  0  0  0  0
 32 34  1  0  0  0  0
 32 35  1  0  0  0  0
M  END
> <IC50(uM)>
0.039

> <Outcome>
1.0

> <BindingDB ID>
1020416

> <BindingDB MonomerID>
490367

> <BindingDB Ligand Name>
N-(2-chloro-3-fluorophenyl)-5-fluoro-4-(3-oxo-5,6,7,8-tetrahydro[1,2,4]triazolo[4,3-a]pyridin-2(3H)-yl)-2-{[(2S)-1,1,1-trifluoropropan-2-yl]oxy}benzamide::US10968216, Example 35

> <Curation/DataSource>
US Patent

> <Article DOI>
?

> <PMID>
?

> <Patent Number>
US10968216

> <Authors>
Gradl, SN; Nguyen, D; Eis, K; Gunther, J; Stellfeld, T; Janzer, A; Christian, S; Mueller, T; Sheikh, SE; Zhou, HJ; Zhao, C; Sykes, DB; Ferrara, SJ; Liu, K; Herbert, SA; Merz, C; Niehues, M; Nising, CF; Schafer, M; Zimmermann, K; Knablein, J; Thede, K; Faupel, T

> <Link to Ligand in BindingDB>
http://www.bindingdb.org/bind/chemsearch/marvin/MolStructure.jsp?monomerid=490367

> <Link to Ligand-Target Pair in BindingDB>
http://www.bindingdb.org/jsp/dbsearch/PrimarySearch_ki.jsp?energyterm=kJ/mole&tag=r21&monomerid=490367&enzyme=Dihydroorotate+dehydrogenase&column=ki&startPg=0&Increment=50&submit=Search

> <PubChem CID>
134473855

> <PubChem SID>
447117094

$$$$

  Mrv2115 07222212352D          

 29 31  0  0  0  0            999 V2000
    2.8579   -2.4750    0.0000 O   0  0  0  0  0  0  0  0  0  0  0  0
    2.8579   -1.6500    0.0000 C   0  0  0  0  0  0  0  0  0  0  0  0
    3.5724   -1.2375    0.0000 N   0  0  0  0  0  0  0  0  0  0  0  0
    4.2868   -1.6500    0.0000 C   0  0  0  0  0  0  0  0  0  0  0  0
    5.0013   -1.2375    0.0000 C   0  0  0  0  0  0  0  0  0  0  0  0
    5.7158   -1.6500    0.0000 O   0  0  0  0  0  0  0  0  0  0  0  0
    2.1434   -1.2375    0.0000 C   0  0  0  0  0  0  0  0  0  0  0  0
    1.4289   -1.6500    0.0000 C   0  0  0  0  0  0  0  0  0  0  0  0
    0.7145   -1.2375    0.0000 C   0  0  0  0  0  0  0  0  0  0  0  0
    0.7145   -0.4125    0.0000 C   0  0  0  0  0  0  0  0  0  0  0  0
    0.0000    0.0000    0.0000 C   0  0  0  0  0  0  0  0  0  0  0  0
    0.0000    0.8250    0.0000 C   0  0  0  0  0  0  0  0  0  0  0  0
   -0.7145    1.2375    0.0000 C   0  0  0  0  0  0  0  0  0  0  0  0
   -1.4289    0.8250    0.0000 C   0  0  0  0  0  0  0  0  0  0  0  0
   -2.1434    1.2375    0.0000 C   0  0  0  0  0  0  0  0  0  0  0  0
   -2.8579    0.8250    0.0000 C   0  0  0  0  0  0  0  0  0  0  0  0
   -2.8579    0.0000    0.0000 C   0  0  0  0  0  0  0  0  0  0  0  0
   -3.5724   -0.4125    0.0000 O   0  0  0  0  0  0  0  0  0  0  0  0
   -2.1434   -0.4125    0.0000 O   0  0  0  0  0  0  0  0  0  0  0  0
   -3.5724    1.2375    0.0000 N   0  0  0  0  0  0  0  0  0  0  0  0
   -3.5724    2.0625    0.0000 C   0  0  0  0  0  0  0  0  0  0  0  0
   -4.2868    2.4750    0.0000 O   0  0  0  0  0  0  0  0  0  0  0  0
   -2.8579    2.4750    0.0000 N   0  0  0  0  0  0  0  0  0  0  0  0
   -2.1434    2.0625    0.0000 C   0  0  0  0  0  0  0  0  0  0  0  0
   -1.4289    2.4750    0.0000 O   0  0  0  0  0  0  0  0  0  0  0  0
    0.7145    1.2375    0.0000 C   0  0  0  0  0  0  0  0  0  0  0  0
    1.4289    0.8250    0.0000 C   0  0  0  0  0  0  0  0  0  0  0  0
    1.4289    0.0000    0.0000 C   0  0  0  0  0  0  0  0  0  0  0  0
    2.1434   -0.4125    0.0000 C   0  0  0  0  0  0  0  0  0  0  0  0
  1  2  2  0  0  0  0
  2  3  1  0  0  0  0
  3  4  1  0  0  0  0
  4  5  1  0  0  0  0
  5  6  1  0  0  0  0
  2  7  1  0  0  0  0
  7  8  4  0  0  0  0
  8  9  4  0  0  0  0
  9 10  4  0  0  0  0
 10 11  4  0  0  0  0
 11 12  4  0  0  0  0
 12 13  1  0  0  0  0
 13 14  1  0  0  0  0
 14 15  1  0  0  0  0
 15 16  4  0  0  0  0
 16 17  1  0  0  0  0
 17 18  2  0  0  0  0
 17 19  1  0  0  0  0
 16 20  4  0  0  0  0
 20 21  4  0  0  0  0
 21 22  2  0  0  0  0
 21 23  4  0  0  0  0
 23 24  4  0  0  0  0
 15 24  4  0  0  0  0
 24 25  2  0  0  0  0
 12 26  4  0  0  0  0
 26 27  4  0  0  0  0
 27 28  4  0  0  0  0
 10 28  4  0  0  0  0
 28 29  4  0  0  0  0
  7 29  4  0  0  0  0
M  STY  2   1 DAT   2 DAT
M  SAL   1  1  20
M  SDT   1 MRV_IMPLICIT_H                                        
M  SDD   1     0.5304   -0.4125    DR    ALL  0       0  
M  SED   1 IMPL_H1
M  SAL   2  1  23
M  SDT   2 MRV_IMPLICIT_H                                        
M  SDD   2     0.6482   -0.4125    DR    ALL  0       0  
M  SED   2 IMPL_H1
M  END
> <IC50(uM)>
1.0

> <Outcome>
1.0

> <BindingDB ID>
50555379

> <BindingDB MonomerID>
50211946

> <BindingDB Ligand Name>
CHEMBL3919626

> <Curation/DataSource>
ChEMBL

> <Article DOI>
10.1016/j.bmc.2017.01.009

> <PMID>
28118956

> <Patent Number>
?

> <Authors>
Inaoka, DK; Iida, M; Hashimoto, S; Tabuchi, T; Kuranaga, T; Balogun, EO; Honma, T; Tanaka, A; Harada, S; Nara, T; Kita, K; Inoue, M

> <Link to Ligand in BindingDB>
http://www.bindingdb.org/bind/chemsearch/marvin/MolStructure.jsp?monomerid=50211946

> <Link to Ligand-Target Pair in BindingDB>
http://www.bindingdb.org/jsp/dbsearch/PrimarySearch_ki.jsp?energyterm=kJ/mole&tag=r21&monomerid=50211946&enzyme=Dihydroorotate+dehydrogenase&column=ki&startPg=0&Increment=50&submit=Search

> <PubChem CID>
134139862

> <PubChem SID>
104088024

$$$$

  Mrv2115 07222212352D          

 38 41  0  0  0  0            999 V2000
    0.6334   -0.9989    0.0000 C   0  0  0  0  0  0  0  0  0  0  0  0
    0.2979   -1.7526    0.0000 C   0  0  0  0  0  0  0  0  0  0  0  0
   -0.5226   -1.8388    0.0000 O   0  0  0  0  0  0  0  0  0  0  0  0
   -0.8582   -2.5925    0.0000 C   0  0  0  0  0  0  0  0  0  0  0  0
   -0.3732   -3.2599    0.0000 C   0  0  0  0  0  0  0  0  0  0  0  0
   -0.7088   -4.0136    0.0000 C   0  0  0  0  0  0  0  0  0  0  0  0
   -0.2239   -4.6810    0.0000 N   0  0  0  0  0  0  0  0  0  0  0  0
    0.6011   -4.6810    0.0000 N   0  0  0  0  0  0  0  0  0  0  0  0
    0.8561   -5.4656    0.0000 C   0  0  0  0  0  0  0  0  0  0  0  0
    1.6407   -5.7206    0.0000 C   0  0  0  0  0  0  0  0  0  0  0  0
    1.8122   -6.5276    0.0000 O   0  0  0  0  0  0  0  0  0  0  0  0
    2.2538   -5.1686    0.0000 O   0  0  0  0  0  0  0  0  0  0  0  0
    0.1886   -5.9506    0.0000 N   0  0  0  0  0  0  0  0  0  0  0  0
    0.1886   -6.7756    0.0000 C   0  0  0  0  0  0  0  0  0  0  0  0
    0.7720   -7.3589    0.0000 C   0  0  0  0  0  0  0  0  0  0  0  0
    0.1886   -7.9423    0.0000 C   0  0  0  0  0  0  0  0  0  0  0  0
   -0.3947   -7.3589    0.0000 C   0  0  0  0  0  0  0  0  0  0  0  0
   -0.4788   -5.4656    0.0000 C   0  0  0  0  0  0  0  0  0  0  0  0
   -1.2634   -5.7206    0.0000 O   0  0  0  0  0  0  0  0  0  0  0  0
   -1.5293   -4.0998    0.0000 C   0  0  0  0  0  0  0  0  0  0  0  0
   -1.8648   -4.8535    0.0000 F   0  0  0  0  0  0  0  0  0  0  0  0
   -2.0142   -3.4324    0.0000 C   0  0  0  0  0  0  0  0  0  0  0  0
   -1.6786   -2.6787    0.0000 C   0  0  0  0  0  0  0  0  0  0  0  0
   -2.1636   -2.0113    0.0000 C   0  0  0  0  0  0  0  0  0  0  0  0
   -1.8280   -1.2576    0.0000 O   0  0  0  0  0  0  0  0  0  0  0  0
   -2.9840   -2.0975    0.0000 N   0  0  0  0  0  0  0  0  0  0  0  0
   -3.4690   -1.4301    0.0000 C   0  0  0  0  0  0  0  0  0  0  0  0
   -4.2894   -1.5163    0.0000 C   0  0  0  0  0  0  0  0  0  0  0  0
   -4.6250   -2.2700    0.0000 F   0  0  0  0  0  0  0  0  0  0  0  0
   -4.7744   -0.8489    0.0000 C   0  0  0  0  0  0  0  0  0  0  0  0
   -4.4388   -0.0952    0.0000 C   0  0  0  0  0  0  0  0  0  0  0  0
   -3.6183   -0.0090    0.0000 C   0  0  0  0  0  0  0  0  0  0  0  0
   -3.1334   -0.6764    0.0000 C   0  0  0  0  0  0  0  0  0  0  0  0
   -2.3129   -0.5902    0.0000 Cl  0  0  0  0  0  0  0  0  0  0  0  0
    0.7828   -2.4200    0.0000 C   0  0  0  0  0  0  0  0  0  0  0  0
    0.1154   -2.9049    0.0000 F   0  0  0  0  0  0  0  0  0  0  0  0
    1.4502   -1.9351    0.0000 F   0  0  0  0  0  0  0  0  0  0  0  0
    1.2677   -3.0874    0.0000 F   0  0  0  0  0  0  0  0  0  0  0  0
  1  2  1  0  0  0  0
  2  3  1  0  0  0  0
  3  4  1  0  0  0  0
  4  5  4  0  0  0  0
  5  6  4  0  0  0  0
  6  7  1  0  0  0  0
  7  8  4  0  0  0  0
  8  9  4  0  0  0  0
  9 10  1  0  0  0  0
 10 11  2  0  0  0  0
 10 12  1  0  0  0  0
  9 13  4  0  0  0  0
 13 14  1  0  0  0  0
 14 15  1  0  0  0  0
 15 16  1  0  0  0  0
 16 17  1  0  0  0  0
 14 17  1  0  0  0  0
 13 18  4  0  0  0  0
  7 18  4  0  0  0  0
 18 19  2  0  0  0  0
  6 20  4  0  0  0  0
 20 21  1  0  0  0  0
 20 22  4  0  0  0  0
 22 23  4  0  0  0  0
  4 23  4  0  0  0  0
 23 24  1  0  0  0  0
 24 25  2  0  0  0  0
 24 26  1  0  0  0  0
 26 27  1  0  0  0  0
 27 28  4  0  0  0  0
 28 29  1  0  0  0  0
 28 30  4  0  0  0  0
 30 31  4  0  0  0  0
 31 32  4  0  0  0  0
 32 33  4  0  0  0  0
 27 33  4  0  0  0  0
 33 34  1  0  0  0  0
  2 35  1  0  0  0  0
 35 36  1  0  0  0  0
 35 37  1  0  0  0  0
 35 38  1  0  0  0  0
M  END
> <IC50(uM)>
0.013

> <Outcome>
1.0

> <BindingDB ID>
1098842; 972688

> <BindingDB MonomerID>
470566

> <BindingDB Ligand Name>
1-(4-[(2-chloro-6-fluorophenyl)carbamoyl]-2-fluoro-5-{[(2S)-1,1,1-trifluoropropan-2-yl]oxy}phenyl)-4-cyclobutyl-5-oxo-4,5-dihydro-1H-1,2,4-triazole-3-carboxylic acid::US10815215, Example 226::US11130745, Example 226; 1-(4-[(2-chloro-6-fluorophenyl)carbamoyl]-2-fluoro-5-{[(2S)-1,1,1-trifluoropropan-2-yl]oxy}phenyl)-4-cyclobutyl-5-oxo-4,5-dihydro-1H-1,2,4-triazole-3-carboxylic acid::US10815215, Example 226

> <Curation/DataSource>
US Patent

> <Article DOI>
?

> <PMID>
?

> <Patent Number>
US11130745; US10815215

> <Authors>
Gradl, SN; Nguyen, D; Eis, K; Gunther, J; Stellfeld, T; Janzer, A; Christian, S; Muller, T; Sheikh, SE; Sykes, DB; Ferrara, SJ; Krober, M; Merz, C; Niehues, M; Schafer, M; Zimmermann, K; Nising, CF; Gradl, SN; Nguyen, D; Eis, K; Gunther, J; Stellfeld, T; Janzer, A; Christian, S; Muller, T; Sheikh, SE; Zhou, HJ; Zhao, C; Sykes, DB; Ferrara, SJ; Liu, K; Krober, M; Merz, C; Niehues, M; Schafer, M; Zimmermann, K; Nising, CF

> <Link to Ligand in BindingDB>
http://www.bindingdb.org/bind/chemsearch/marvin/MolStructure.jsp?monomerid=470566

> <Link to Ligand-Target Pair in BindingDB>
http://www.bindingdb.org/jsp/dbsearch/PrimarySearch_ki.jsp?energyterm=kJ/mole&tag=r21&monomerid=470566&enzyme=Dihydroorotate+dehydrogenase&column=ki&startPg=0&Increment=50&submit=Search

> <PubChem CID>
134470299

> <PubChem SID>
441609742

$$$$
